Version 4
SHEET 1 880 680
WIRE 608 -32 496 -32
WIRE 608 0 608 -32
WIRE 496 48 496 -32
WIRE 640 112 576 112
WIRE 576 128 576 112
WIRE 576 128 496 128
WIRE 128 144 -16 144
WIRE 368 144 208 144
WIRE -16 160 -16 144
WIRE 576 160 496 160
WIRE 576 192 576 160
WIRE 640 192 576 192
WIRE -16 288 -16 240
FLAG -16 288 0
FLAG 368 224 0
FLAG 496 240 0
FLAG 608 0 0
SYMBOL voltage -16 144 R0
WINDOW 123 0 0 Left 0
WINDOW 39 0 0 Left 0
SYMATTR InstName V1
SYMATTR Value SINE(0 1 1e9)
SYMBOL res 224 128 R90
WINDOW 0 0 56 VBottom 2
WINDOW 3 32 56 VTop 2
SYMATTR InstName R1
SYMATTR Value 50
SYMBOL res 624 96 R0
SYMATTR InstName R2
SYMATTR Value 100
SYMBOL ind2 352 128 R0
SYMATTR InstName L1
SYMATTR Value 0.001
SYMATTR Type ind
SYMBOL ind2 480 32 R0
SYMATTR InstName L2
SYMATTR Value 0.004
SYMATTR Type ind
SYMBOL ind2 480 144 R0
SYMATTR InstName L3
SYMATTR Value 0.004
SYMATTR Type ind
TEXT -50 312 Left 2 !.tran 0 0.0000001 0
TEXT 344 -48 Left 2 !K1 L1 L2 L3 1
