* Equivalent circuit model for CMA-5043+_5V_Plus25DegC.ckt
.SUBCKT CMA-5043+_5V_Plus25DegC po1 po2
Vsp1 po1 p1 0
Vsr1 p1 pr1 0
Rp1 pr1 0 50
Ru1 u1 0 50
Fr1 u1 0 Vsr1 -1
Fu1 u1 0 Vsp1 -1
Ry1 y1 0 1
Gy1 p1 0 y1 0 -0.02
Vsp2 po2 p2 0
Vsr2 p2 pr2 0
Rp2 pr2 0 50
Ru2 u2 0 50
Fr2 u2 0 Vsr2 -1
Fu2 u2 0 Vsp2 -1
Ry2 y2 0 1
Gy2 p2 0 y2 0 -0.02
Rx1 x1 0 1
Fxc1_2 x1 0 Vx2 2.09429757386434
Cx1 x1 xm1 2.87060508922215e-13
Vx1 xm1 0 0
Gx1_1 x1 0 u1 0 -0.000149951069880376
Rx2 x2 0 1
Fxc2_1 x2 0 Vx1 -445.251537372569
Cx2 x2 xm2 2.87060508922216e-13
Vx2 xm2 0 0
Gx2_1 x2 0 u1 0 0.0667659443948988
Rx3 x3 0 1
Fxc3_4 x3 0 Vx4 37.7178314529486
Cx3 x3 xm3 2.14951724198048e-13
Vx3 xm3 0 0
Gx3_1 x3 0 u1 0 -0.000104470432497296
Rx4 x4 0 1
Fxc4_3 x4 0 Vx3 -48.8139755625609
Cx4 x4 xm4 2.14951724198048e-13
Vx4 xm4 0 0
Gx4_1 x4 0 u1 0 0.00509961713893317
Rx5 x5 0 1
Fxc5_6 x5 0 Vx6 3.90299552268256
Cx5 x5 xm5 2.64800814690544e-13
Vx5 xm5 0 0
Gx5_1 x5 0 u1 0 -2.23795403791762e-05
Rx6 x6 0 1
Fxc6_5 x6 0 Vx5 -335.499699936289
Cx6 x6 xm6 2.64800814690544e-13
Vx6 xm6 0 0
Gx6_1 x6 0 u1 0 0.00750832908192567
Rx7 x7 0 1
Fxc7_8 x7 0 Vx8 24.6178887893632
Cx7 x7 xm7 9.06783631436284e-13
Vx7 xm7 0 0
Gx7_1 x7 0 u1 0 -0.0283470144271603
Rx8 x8 0 1
Fxc8_7 x8 0 Vx7 -4.99671192362294
Cx8 x8 xm8 9.06783631436284e-13
Vx8 xm8 0 0
Gx8_1 x8 0 u1 0 0.141641864987303
Rx9 x9 0 1
Fxc9_10 x9 0 Vx10 28.8495040748833
Cx9 x9 xm9 3.37827865050702e-13
Vx9 xm9 0 0
Gx9_1 x9 0 u1 0 -0.000457376606440122
Rx10 x10 0 1
Fxc10_9 x10 0 Vx9 -33.4199174509494
Cx10 x10 xm10 3.37827865050702e-13
Vx10 xm10 0 0
Gx10_1 x10 0 u1 0 0.0152854884312242
Rx11 x11 0 1
Fxc11_12 x11 0 Vx12 36.3267548797069
Cx11 x11 xm11 2.16746118370639e-13
Vx11 xm11 0 0
Gx11_1 x11 0 u1 0 -0.000119108042850154
Rx12 x12 0 1
Fxc12_11 x12 0 Vx11 -67.0292088175732
Cx12 x12 xm12 2.16746118370639e-13
Vx12 xm12 0 0
Gx12_1 x12 0 u1 0 0.00798371787605541
Rx13 x13 0 1
Fxc13_14 x13 0 Vx14 52.0091341880116
Cx13 x13 xm13 2.35673728092649e-13
Vx13 xm13 0 0
Gx13_1 x13 0 u1 0 -2.78539292500512e-05
Rx14 x14 0 1
Fxc14_13 x14 0 Vx13 -44.3284359836786
Cx14 x14 xm14 2.35673728092649e-13
Vx14 xm14 0 0
Gx14_1 x14 0 u1 0 0.00123472111965481
Rx15 x15 0 1
Fxc15_16 x15 0 Vx16 9.61549107737617
Cx15 x15 xm15 9.9938565516691e-13
Vx15 xm15 0 0
Gx15_1 x15 0 u1 0 -0.0132320427207703
Rx16 x16 0 1
Fxc16_15 x16 0 Vx15 -14.2569754549145
Cx16 x16 xm16 9.9938565516691e-13
Vx16 xm16 0 0
Gx16_1 x16 0 u1 0 0.188648908288402
Rx17 x17 0 1
Fxc17_18 x17 0 Vx18 27.2894618266908
Cx17 x17 xm17 1.58482941113653e-13
Vx17 xm17 0 0
Gx17_1 x17 0 u1 0 -4.33500658190099e-06
Rx18 x18 0 1
Fxc18_17 x18 0 Vx17 -222.530142256075
Cx18 x18 xm18 1.58482941113653e-13
Vx18 xm18 0 0
Gx18_1 x18 0 u1 0 0.000964669631351448
Rx19 x19 0 1
Fxc19_20 x19 0 Vx20 15.509033142785
Cx19 x19 xm19 2.96947443018644e-13
Vx19 xm19 0 0
Gx19_1 x19 0 u1 0 -3.37955711355307e-05
Rx20 x20 0 1
Fxc20_19 x20 0 Vx19 -116.04935477903
Cx20 x20 xm20 2.96947443018644e-13
Vx20 xm20 0 0
Gx20_1 x20 0 u1 0 0.00392195422466717
Rx21 x21 0 1
Fxc21_22 x21 0 Vx22 46.5001671964016
Cx21 x21 xm21 2.82489214445738e-13
Vx21 xm21 0 0
Gx21_1 x21 0 u1 0 -2.0017229602428e-05
Rx22 x22 0 1
Fxc22_21 x22 0 Vx21 -47.8089659008142
Cx22 x22 xm22 2.82489214445738e-13
Vx22 xm22 0 0
Gx22_1 x22 0 u1 0 0.00095700304749125
Rx23 x23 0 1
Fxc23_24 x23 0 Vx24 29.3265475148589
Cx23 x23 xm23 1.25157800297801e-12
Vx23 xm23 0 0
Gx23_1 x23 0 u1 0 -0.0103140208552761
Rx24 x24 0 1
Fxc24_23 x24 0 Vx23 -4.22305594485865
Cx24 x24 xm24 1.25157800297801e-12
Vx24 xm24 0 0
Gx24_1 x24 0 u1 0 0.04355668708827
Rx25 x25 0 1
Fxc25_26 x25 0 Vx26 21.7082997240386
Cx25 x25 xm25 1.51094605540703e-12
Vx25 xm25 0 0
Gx25_1 x25 0 u1 0 -0.0115929926047637
Rx26 x26 0 1
Fxc26_25 x26 0 Vx25 -4.58115378939401
Cx26 x26 xm26 1.51094605540703e-12
Vx26 xm26 0 0
Gx26_1 x26 0 u1 0 0.0531092820017299
Rx27 x27 0 1
Fxc27_28 x27 0 Vx28 1.40522799907503
Cx27 x27 xm27 1.70972884859627e-12
Vx27 xm27 0 0
Gx27_1 x27 0 u1 0 -0.000772671018570193
Rx28 x28 0 1
Fxc28_27 x28 0 Vx27 -64.4081824157388
Cx28 x28 xm28 1.70972884859627e-12
Vx28 xm28 0 0
Gx28_1 x28 0 u1 0 0.0497663359114237
Rx29 x29 0 1
Fxc29_30 x29 0 Vx30 0.624885741261362
Cx29 x29 xm29 1.61515298397391e-12
Vx29 xm29 0 0
Gx29_1 x29 0 u1 0 -0.000256334467977839
Rx30 x30 0 1
Fxc30_29 x30 0 Vx29 -250.070669835055
Cx30 x30 xm30 1.61515298397391e-12
Vx30 xm30 0 0
Gx30_1 x30 0 u1 0 0.0641017321090306
Rx31 x31 0 1
Fxc31_32 x31 0 Vx32 1.72945456140906
Cx31 x31 xm31 3.3832600882424e-12
Vx31 xm31 0 0
Gx31_1 x31 0 u1 0 -0.0121248297230833
Rx32 x32 0 1
Fxc32_31 x32 0 Vx31 -20.1948098501078
Cx32 x32 xm32 3.3832600882424e-12
Vx32 xm32 0 0
Gx32_1 x32 0 u1 0 0.244858630722602
Rx33 x33 0 1
Fxc33_34 x33 0 Vx34 12.2736156153286
Cx33 x33 xm33 6.36249392361281e-12
Vx33 xm33 0 0
Gx33_1 x33 0 u1 0 -0.146340705650046
Rx34 x34 0 1
Fxc34_33 x34 0 Vx33 -1.38675608761447
Cx34 x34 xm34 6.36249392361281e-12
Vx34 xm34 0 0
Gx34_1 x34 0 u1 0 0.202938864425998
Rx35 x35 0 1
Fxc35_36 x35 0 Vx36 7.25559809336935
Cx35 x35 xm35 4.08890323417608e-12
Vx35 xm35 0 0
Gx35_1 x35 0 u1 0 -0.00610556124133608
Rx36 x36 0 1
Fxc36_35 x36 0 Vx35 -7.33457076772417
Cx36 x36 xm36 4.08890323417608e-12
Vx36 xm36 0 0
Gx36_1 x36 0 u1 0 0.0447816710012533
Rx37 x37 0 1
Fxc37_38 x37 0 Vx38 22.5908294986345
Cx37 x37 xm37 1.41898003518717e-11
Vx37 xm37 0 0
Gx37_1 x37 0 u1 0 -0.234512886573611
Rx38 x38 0 1
Fxc38_37 x38 0 Vx37 -0.295661942189029
Cx38 x38 xm38 1.41898003518717e-11
Vx38 xm38 0 0
Gx38_1 x38 0 u1 0 0.0693365355127092
Rx39 x39 0 1
Fxc39_40 x39 0 Vx40 3.36171152527201
Cx39 x39 xm39 3.02223658791127e-11
Vx39 xm39 0 0
Gx39_1 x39 0 u1 0 -0.612257190887511
Rx40 x40 0 1
Fxc40_39 x40 0 Vx39 -0.73155948098281
Cx40 x40 xm40 3.02223658791127e-11
Vx40 xm40 0 0
Gx40_1 x40 0 u1 0 0.447902552793661
Rx41 x41 0 1
Fxc41_42 x41 0 Vx42 10.7468518171504
Cx41 x41 xm41 1.30273315544064e-11
Vx41 xm41 0 0
Gx41_1 x41 0 u1 0 -0.00425896546207179
Rx42 x42 0 1
Fxc42_41 x42 0 Vx41 -2.77463905341064
Cx42 x42 xm42 1.30273315544064e-11
Vx42 xm42 0 0
Gx42_1 x42 0 u1 0 0.0118170918981915
Rx43 x43 0 1
Fxc43_44 x43 0 Vx44 3.36434889032178
Cx43 x43 xm43 4.87133831260231e-12
Vx43 xm43 0 0
Gx43_1 x43 0 u1 0 -3.0121413672702e-05
Rx44 x44 0 1
Fxc44_43 x44 0 Vx43 -81.1455606399185
Cx44 x44 xm44 4.87133831260231e-12
Vx44 xm44 0 0
Gx44_1 x44 0 u1 0 0.00244421899973831
Rx45 x45 0 1
Fxc45_46 x45 0 Vx46 1.61998700601747
Cx45 x45 xm45 7.06557064659634e-11
Vx45 xm45 0 0
Gx45_1 x45 0 u1 0 -0.744361500392355
Rx46 x46 0 1
Fxc46_45 x46 0 Vx45 -0.932110779964664
Cx46 x46 xm46 7.06557064659634e-11
Vx46 xm46 0 0
Gx46_1 x46 0 u1 0 0.693827378706385
Rx47 x47 0 1
Fxc47_48 x47 0 Vx48 3.0556073611081
Cx47 x47 xm47 9.00586691578378e-12
Vx47 xm47 0 0
Gx47_1 x47 0 u1 0 -2.27633167309635e-05
Rx48 x48 0 1
Fxc48_47 x48 0 Vx47 -111.996144516901
Cx48 x48 xm48 9.00586691578377e-12
Vx48 xm48 0 0
Gx48_1 x48 0 u1 0 0.00254940371028497
Rx49 x49 0 1
Fxc49_50 x49 0 Vx50 209.066355813791
Cx49 x49 xm49 6.72924348226814e-13
Vx49 xm49 0 0
Gx49_1 x49 0 u1 0 -1.72848174119649e-07
Rx50 x50 0 1
Fxc50_49 x50 0 Vx49 -303.5846766105
Cx50 x50 xm50 6.72924348226814e-13
Vx50 xm50 0 0
Gx50_1 x50 0 u1 0 5.24740570428291e-05
Rx51 x51 0 1
Fxc51_52 x51 0 Vx52 14.2532269714476
Cx51 x51 xm51 7.40586010206479e-13
Vx51 xm51 0 0
Gx51_1 x51 0 u1 0 -1.63982640887449e-08
Rx52 x52 0 1
Fxc52_51 x52 0 Vx51 -4179.62689532179
Cx52 x52 xm52 7.40586010206479e-13
Vx52 xm52 0 0
Gx52_1 x52 0 u1 0 6.85386256219076e-05
Rx53 x53 0 1
Fxc53_54 x53 0 Vx54 0.0534208873918435
Cx53 x53 xm53 2.7189670410967e-10
Vx53 xm53 0 0
Gx53_1 x53 0 u1 0 -16.7327745838584
Rx54 x54 0 1
Fxc54_53 x54 0 Vx53 -0.11560606544592
Cx54 x54 xm54 2.7189670410967e-10
Vx54 xm54 0 0
Gx54_1 x54 0 u1 0 1.93441023363336
Rx55 x55 0 1
Fxc55_56 x55 0 Vx56 75.6700575339533
Cx55 x55 xm55 3.40336796714079e-13
Vx55 xm55 0 0
Gx55_1 x55 0 u1 0 -1.14949252259274e-08
Rx56 x56 0 1
Fxc56_55 x56 0 Vx55 -4273.80783317262
Cx56 x56 xm56 3.40336796714079e-13
Vx56 xm56 0 0
Gx56_1 x56 0 u1 0 4.91271014723022e-05
Rx57 x57 0 1
Fxc57_58 x57 0 Vx58 7.91486403926958
Cx57 x57 xm57 1.77838009044698e-11
Vx57 xm57 0 0
Gx57_1 x57 0 u1 0 -0.000599939984699646
Rx58 x58 0 1
Fxc58_57 x58 0 Vx57 -16.0224274862753
Cx58 x58 xm58 1.77838009044698e-11
Vx58 xm58 0 0
Gx58_1 x58 0 u1 0 0.00961249490096718
Rx59 x59 0 1
Fxc59_60 x59 0 Vx60 6607.97178609309
Cx59 x59 xm59 6.45459166206642e-14
Vx59 xm59 0 0
Gx59_1 x59 0 u1 0 -6.45789721874064e-09
Rx60 x60 0 1
Fxc60_59 x60 0 Vx59 -1519.52832514805
Cx60 x60 xm60 6.45459166206642e-14
Vx60 xm60 0 0
Gx60_1 x60 0 u1 0 9.81295774477122e-06
Rx61 x61 0 1
Fxc61_62 x61 0 Vx62 31.3672180629436
Cx61 x61 xm61 3.60587813907164e-12
Vx61 xm61 0 0
Gx61_1 x61 0 u1 0 -7.06813193854952e-06
Rx62 x62 0 1
Fxc62_61 x62 0 Vx61 -108.198098019568
Cx62 x62 xm62 3.60587813907164e-12
Vx62 xm62 0 0
Gx62_1 x62 0 u1 0 0.000764758432302417
Rx63 x63 0 1
Fxc63_64 x63 0 Vx64 0.970794556404795
Cx63 x63 xm63 1.33799391561211e-11
Vx63 xm63 0 0
Gx63_1 x63 0 u1 0 -7.02762529848386e-05
Rx64 x64 0 1
Fxc64_63 x64 0 Vx63 -293.307078040876
Cx64 x64 xm64 1.33799391561211e-11
Vx64 xm64 0 0
Gx64_1 x64 0 u1 0 0.0206125224186444
Rx65 x65 0 1
Fxc65_66 x65 0 Vx66 140.74212076884
Cx65 x65 xm65 2.86431819527606e-12
Vx65 xm65 0 0
Gx65_1 x65 0 u1 0 -8.29427267619837e-06
Rx66 x66 0 1
Fxc66_65 x66 0 Vx65 -41.0983957834867
Cx66 x66 xm66 2.86431819527606e-12
Vx66 xm66 0 0
Gx66_1 x66 0 u1 0 0.00034088130118256
Rx67 x67 0 1
Fxc67_68 x67 0 Vx68 101.574703323604
Cx67 x67 xm67 7.0808537117008e-12
Vx67 xm67 0 0
Gx67_1 x67 0 u1 0 -0.000134357302801061
Rx68 x68 0 1
Fxc68_67 x68 0 Vx67 -10.6013913438328
Cx68 x68 xm68 7.0808537117008e-12
Vx68 xm68 0 0
Gx68_1 x68 0 u1 0 0.00142437434689589
Rx69 x69 0 1
Fxc69_70 x69 0 Vx70 32.5244512511448
Cx69 x69 xm69 8.39484573603046e-12
Vx69 xm69 0 0
Gx69_1 x69 0 u1 0 -6.16257352745165e-05
Rx70 x70 0 1
Fxc70_69 x70 0 Vx69 -26.5921344226316
Cx70 x70 xm70 8.39484573603046e-12
Vx70 xm70 0 0
Gx70_1 x70 0 u1 0 0.00163875983631345
Rx71 x71 0 1
Fxc71_72 x71 0 Vx72 1597.17633201235
Cx71 x71 xm71 2.83045279415423e-13
Vx71 xm71 0 0
Gx71_1 x71 0 u1 0 -7.78590865211595e-08
Rx72 x72 0 1
Fxc72_71 x72 0 Vx71 -501.488167164467
Cx72 x72 xm72 2.83045279415423e-13
Vx72 xm72 0 0
Gx72_1 x72 0 u1 0 3.9045410596596e-05
Rx73 x73 0 1
Fxc73_74 x73 0 Vx74 163.081677433848
Cx73 x73 xm73 5.19274272676225e-12
Vx73 xm73 0 0
Gx73_1 x73 0 u1 0 -1.2410753407805e-05
Rx74 x74 0 1
Fxc74_73 x74 0 Vx73 -16.5231311120809
Cx74 x74 xm74 5.19274272676225e-12
Vx74 xm74 0 0
Gx74_1 x74 0 u1 0 0.000205064505756866
Rx75 x75 0 1
Fxc75_76 x75 0 Vx76 562.687535923902
Cx75 x75 xm75 6.76962091359381e-13
Vx75 xm75 0 0
Gx75_1 x75 0 u1 0 -9.29785289638722e-08
Rx76 x76 0 1
Fxc76_75 x76 0 Vx75 -305.328657198455
Cx76 x76 xm76 6.76962091359381e-13
Vx76 xm76 0 0
Gx76_1 x76 0 u1 0 2.83890093968268e-05
Rx77 x77 0 1
Fxc77_78 x77 0 Vx78 110.355496324475
Cx77 x77 xm77 1.60390660485385e-11
Vx77 xm77 0 0
Gx77_1 x77 0 u1 0 -0.000251629984138903
Rx78 x78 0 1
Fxc78_77 x78 0 Vx77 -2.85603597824502
Cx78 x78 xm78 1.60390660485385e-11
Vx78 xm78 0 0
Gx78_1 x78 0 u1 0 0.00071866428790593
Rx79 x79 0 1
Fxc79_80 x79 0 Vx80 0.524658073787078
Cx79 x79 xm79 3.65373015413682e-11
Vx79 xm79 0 0
Gx79_1 x79 0 u1 0 -0.000209006807996916
Rx80 x80 0 1
Fxc80_79 x80 0 Vx79 -131.971525733187
Cx80 x80 xm80 3.65373015413682e-11
Vx80 xm80 0 0
Gx80_1 x80 0 u1 0 0.0275829473399762
Rx81 x81 0 1
Fxc81_82 x81 0 Vx82 98.3615319636901
Cx81 x81 xm81 4.9605444448296e-12
Vx81 xm81 0 0
Gx81_1 x81 0 u1 0 -4.79488153908484e-06
Rx82 x82 0 1
Fxc82_81 x82 0 Vx81 -46.7618718670489
Cx82 x82 xm82 4.9605444448296e-12
Vx82 xm82 0 0
Gx82_1 x82 0 u1 0 0.000224217636148364
Rx83 x83 0 1
Fxc83_84 x83 0 Vx84 20.0398020738261
Cx83 x83 xm83 1.85213203877505e-12
Vx83 xm83 0 0
Gx83_1 x83 0 u1 0 -1.19023975072567e-07
Rx84 x84 0 1
Fxc84_83 x84 0 Vx83 -1836.7047721807
Cx84 x84 xm84 1.85213203877505e-12
Vx84 xm84 0 0
Gx84_1 x84 0 u1 0 0.000218611903019701
Rx85 x85 0 1
Fxc85_86 x85 0 Vx86 44.6077650092189
Cx85 x85 xm85 6.12244434678794e-12
Vx85 xm85 0 0
Gx85_1 x85 0 u1 0 -4.96508506633859e-06
Rx86 x86 0 1
Fxc86_85 x86 0 Vx85 -88.2816856942824
Cx86 x86 xm86 6.12244434678794e-12
Vx86 xm86 0 0
Gx86_1 x86 0 u1 0 0.000438326079271879
Rx87 x87 0 1
Fxc87_88 x87 0 Vx88 1181.89300944629
Cx87 x87 xm87 1.14029529690273e-12
Vx87 xm87 0 0
Gx87_1 x87 0 u1 0 -2.72230189976552e-07
Rx88 x88 0 1
Fxc88_87 x88 0 Vx87 -110.858410576864
Cx88 x88 xm88 1.14029529690273e-12
Vx88 xm88 0 0
Gx88_1 x88 0 u1 0 3.01790061718382e-05
Rx89 x89 0 1
Fxc89_90 x89 0 Vx90 491.969098447874
Cx89 x89 xm89 9.47069571391727e-12
Vx89 xm89 0 0
Gx89_1 x89 0 u1 0 -2.32713353055471e-05
Rx90 x90 0 1
Fxc90_89 x90 0 Vx89 -4.29840114567481
Cx90 x90 xm90 9.47069571391727e-12
Vx90 xm90 0 0
Gx90_1 x90 0 u1 0 0.000100029534338746
Rx91 x91 0 1
Fxc91_92 x91 0 Vx92 669.96282077103
Cx91 x91 xm91 1.41828331495617e-12
Vx91 xm91 0 0
Gx91_1 x91 0 u1 0 -7.30697663613735e-07
Rx92 x92 0 1
Fxc92_91 x92 0 Vx91 -151.199218134516
Cx92 x92 xm92 1.41828331495617e-12
Vx92 xm92 0 0
Gx92_1 x92 0 u1 0 0.000110480915431114
Rx93 x93 0 1
Fxc93_94 x93 0 Vx94 19.1597939071029
Cx93 x93 xm93 5.0878616870562e-12
Vx93 xm93 0 0
Gx93_1 x93 0 u1 0 -1.2518653813256e-06
Rx94 x94 0 1
Fxc94_93 x94 0 Vx93 -495.963972077337
Cx94 x94 xm94 5.0878616870562e-12
Vx94 xm94 0 0
Gx94_1 x94 0 u1 0 0.000620880127028355
Rx95 x95 0 1
Fxc95_96 x95 0 Vx96 7.86886673399765
Cx95 x95 xm95 4.66368852903178e-11
Vx95 xm95 0 0
Gx95_1 x95 0 u1 0 -0.000416736740754939
Rx96 x96 0 1
Fxc96_95 x96 0 Vx95 -18.5487607854936
Cx96 x96 xm96 4.66368852903178e-11
Vx96 xm96 0 0
Gx96_1 x96 0 u1 0 0.00772995011478962
Rx97 x97 0 1
Fxc97_98 x97 0 Vx98 46.57273051496
Cx97 x97 xm97 5.38073810888037e-12
Vx97 xm97 0 0
Gx97_1 x97 0 u1 0 -2.31248695644155e-06
Rx98 x98 0 1
Fxc98_97 x98 0 Vx97 -209.916194643155
Cx98 x98 xm98 5.38073810888037e-12
Vx98 xm98 0 0
Gx98_1 x98 0 u1 0 0.000485428462058141
Rx99 x99 0 1
Fxc99_100 x99 0 Vx100 154.621180355707
Cx99 x99 xm99 9.45572193374133e-12
Vx99 xm99 0 0
Gx99_1 x99 0 u1 0 -1.1762885680728e-05
Rx100 x100 0 1
Fxc100_99 x100 0 Vx99 -25.9316030607337
Cx100 x100 xm100 9.45572193374133e-12
Vx100 xm100 0 0
Gx100_1 x100 0 u1 0 0.000305030482321426
Rx101 x101 0 1
Fxc101_102 x101 0 Vx102 67.267513755542
Cx101 x101 xm101 1.20602139754355e-11
Vx101 xm101 0 0
Gx101_1 x101 0 u1 0 -1.69572574954266e-05
Rx102 x102 0 1
Fxc102_101 x102 0 Vx101 -43.9565752106921
Cx102 x102 xm102 1.20602139754355e-11
Vx102 xm102 0 0
Gx102_1 x102 0 u1 0 0.000745382964464792
Rx103 x103 0 1
Fxc103_104 x103 0 Vx104 244.134555454128
Cx103 x103 xm103 1.25498339510922e-11
Vx103 xm103 0 0
Gx103_1 x103 0 u1 0 -7.3931405139448e-06
Rx104 x104 0 1
Fxc104_103 x104 0 Vx103 -15.4411290431327
Cx104 x104 xm104 1.25498339510922e-11
Vx104 xm104 0 0
Gx104_1 x104 0 u1 0 0.000114158436709834
Rx105 x105 0 1
Fxc105_106 x105 0 Vx106 41.1219781367017
Cx105 x105 xm105 3.32631261202093e-11
Vx105 xm105 0 0
Gx105_1 x105 0 u1 0 -4.81356513856811e-05
Rx106 x106 0 1
Fxc106_105 x106 0 Vx105 -23.0543599215606
Cx106 x106 xm106 3.32631261202093e-11
Vx106 xm106 0 0
Gx106_1 x106 0 u1 0 0.00110973663210426
Rx107 x107 0 1
Fxc107_108 x107 0 Vx108 17.6320047809159
Cx107 x107 xm107 1.45379770932265e-10
Vx107 xm107 0 0
Gx107_1 x107 0 u1 0 -0.00137246973710192
Rx108 x108 0 1
Fxc108_107 x108 0 Vx107 -3.71520540693266
Cx108 x108 xm108 1.45379770932265e-10
Vx108 xm108 0 0
Gx108_1 x108 0 u1 0 0.00509900698813251
Rx109 x109 0 1
Fxc109_110 x109 0 Vx110 663.964978093968
Cx109 x109 xm109 4.64722716786655e-11
Vx109 xm109 0 0
Gx109_1 x109 0 u1 0 -6.16726235522221e-05
Rx110 x110 0 1
Fxc110_109 x110 0 Vx109 -4.942311054366
Cx110 x110 xm110 4.64722716786655e-11
Vx110 xm110 0 0
Gx110_1 x110 0 u1 0 0.0003048052891339
Rx111 x111 0 1
Fxc111_112 x111 0 Vx112 7.88054298013019
Cx111 x111 xm111 2.59641851055736e-10
Vx111 xm111 0 0
Gx111_1 x111 0 u1 0 -0.00039622983752322
Rx112 x112 0 1
Fxc112_111 x112 0 Vx111 -60.2028015819753
Cx112 x112 xm112 2.59641851055736e-10
Vx112 xm112 0 0
Gx112_1 x112 0 u1 0 0.0238541462892687
Rx113 x113 0 1
Fxc113_114 x113 0 Vx114 0.852015386400014
Cx113 x113 xm113 6.69011915274045e-09
Vx113 xm113 0 0
Gx113_1 x113 0 u1 0 -0.57375549423012
Rx114 x114 0 1
Fxc114_113 x114 0 Vx113 -5.85588652099324
Cx114 x114 xm114 6.69011915274045e-09
Vx114 xm114 0 0
Gx114_1 x114 0 u1 0 3.35984706500797
Rx115 x115 0 1
Fxc115_116 x115 0 Vx116 0.430281144205534
Cx115 x115 xm115 1.52744488718003e-09
Vx115 xm115 0 0
Gx115_1 x115 0 u1 0 -0.00464367320775955
Rx116 x116 0 1
Fxc116_115 x116 0 Vx115 -68.3212881669161
Cx116 x116 xm116 1.52744488718003e-09
Vx116 xm116 0 0
Gx116_1 x116 0 u1 0 0.317261735380328
Rx117 x117 0 1
Fxc117_118 x117 0 Vx118 41.6691319318108
Cx117 x117 xm117 1.70618985523348e-11
Vx117 xm117 0 0
Gx117_1 x117 0 u1 0 -4.87695569596373e-06
Rx118 x118 0 1
Fxc118_117 x118 0 Vx117 -836.822888292659
Cx118 x118 xm118 1.70618985523348e-11
Vx118 xm118 0 0
Gx118_1 x118 0 u1 0 0.0040811481515717
Rx119 x119 0 1
Cx119 x119 0 1.12913277439532e-08
Gx119_1 x119 0 u1 0 -0.960973157685528
Rx120 x120 0 1
Cx120 x120 0 2.13606987450335e-08
Gx120_1 x120 0 u1 0 -23.4069055687076
Rx121 x121 0 1
Fxc121_122 x121 0 Vx122 17.1392888247413
Cx121 x121 xm121 2.87060508922215e-13
Vx121 xm121 0 0
Gx121_2 x121 0 u2 0 -0.00111804352731375
Rx122 x122 0 1
Fxc122_121 x122 0 Vx121 -54.4065289997709
Cx122 x122 xm122 2.87060508922215e-13
Vx122 xm122 0 0
Gx122_2 x122 0 u2 0 0.0608288675918018
Rx123 x123 0 1
Fxc123_124 x123 0 Vx124 15.8654482460275
Cx123 x123 xm123 2.14951724198048e-13
Vx123 xm123 0 0
Gx123_2 x123 0 u2 0 -0.000153097712008718
Rx124 x124 0 1
Fxc124_123 x124 0 Vx123 -116.048237293139
Cx124 x124 xm124 2.14951724198049e-13
Vx124 xm124 0 0
Gx124_2 x124 0 u2 0 0.0177667196122244
Rx125 x125 0 1
Fxc125_126 x125 0 Vx126 180.861346752981
Cx125 x125 xm125 2.64800814690544e-13
Vx125 xm125 0 0
Gx125_2 x125 0 u2 0 -0.000656470906410051
Rx126 x126 0 1
Fxc126_125 x126 0 Vx125 -7.24009773354787
Cx126 x126 xm126 2.64800814690544e-13
Vx126 xm126 0 0
Gx126_2 x126 0 u2 0 0.00475291352163953
Rx127 x127 0 1
Fxc127_128 x127 0 Vx128 4.45923773022542
Cx127 x127 xm127 9.06783631436284e-13
Vx127 xm127 0 0
Gx127_2 x127 0 u2 0 -0.0069458033565874
Rx128 x128 0 1
Fxc128_127 x128 0 Vx127 -27.5850954557689
Cx128 x128 xm128 9.06783631436284e-13
Vx128 xm128 0 0
Gx128_2 x128 0 u2 0 0.191600648608463
Rx129 x129 0 1
Fxc129_130 x129 0 Vx130 74.5659867283274
Cx129 x129 xm129 3.37827865050702e-13
Vx129 xm129 0 0
Gx129_2 x129 0 u2 0 -0.00158120505896976
Rx130 x130 0 1
Fxc130_129 x130 0 Vx129 -12.9301319138469
Cx130 x130 xm130 3.37827865050702e-13
Vx130 xm130 0 0
Gx130_2 x130 0 u2 0 0.020445189995321
Rx131 x131 0 1
Fxc131_132 x131 0 Vx132 18.9430953366298
Cx131 x131 xm131 2.16746118370639e-13
Vx131 xm131 0 0
Gx131_2 x131 0 u2 0 -9.17545170976491e-05
Rx132 x132 0 1
Fxc132_131 x132 0 Vx131 -128.540430971081
Cx132 x132 xm132 2.16746118370639e-13
Vx132 xm132 0 0
Gx132_2 x132 0 u2 0 0.0117941651712753
Rx133 x133 0 1
Fxc133_134 x133 0 Vx134 19.2074583928036
Cx133 x133 xm133 2.35673728092649e-13
Vx133 xm133 0 0
Gx133_2 x133 0 u2 0 -3.54690720760159e-05
Rx134 x134 0 1
Fxc134_133 x134 0 Vx133 -120.030642694694
Cx134 x134 xm134 2.35673728092649e-13
Vx134 xm134 0 0
Gx134_2 x134 0 u2 0 0.00425737551706863
Rx135 x135 0 1
Fxc135_136 x135 0 Vx136 2.46192291029929
Cx135 x135 xm135 9.9938565516691e-13
Vx135 xm135 0 0
Gx135_2 x135 0 u2 0 -0.00404042205876885
Rx136 x136 0 1
Fxc136_135 x136 0 Vx135 -55.6832302520944
Cx136 x136 xm136 9.9938565516691e-13
Vx136 xm136 0 0
Gx136_2 x136 0 u2 0 0.224983751814067
Rx137 x137 0 1
Fxc137_138 x137 0 Vx138 231.557503081381
Cx137 x137 xm137 1.58482941113653e-13
Vx137 xm137 0 0
Gx137_2 x137 0 u2 0 -1.56541465454897e-05
Rx138 x138 0 1
Fxc138_137 x138 0 Vx137 -26.2255713659641
Cx138 x138 xm138 1.58482941113653e-13
Vx138 xm138 0 0
Gx138_2 x138 0 u2 0 0.000410538937402002
Rx139 x139 0 1
Fxc139_140 x139 0 Vx140 73.336272069362
Cx139 x139 xm139 2.96947443018644e-13
Vx139 xm139 0 0
Gx139_2 x139 0 u2 0 -0.00019608608592899
Rx140 x140 0 1
Fxc140_139 x140 0 Vx139 -24.5419250076487
Cx140 x140 xm140 2.96947443018644e-13
Vx140 xm140 0 0
Gx140_2 x140 0 u2 0 0.00481233001591264
Rx141 x141 0 1
Fxc141_142 x141 0 Vx142 25.8967253217752
Cx141 x141 xm141 2.82489214445738e-13
Vx141 xm141 0 0
Gx141_2 x141 0 u2 0 -1.7880123406017e-05
Rx142 x142 0 1
Fxc142_141 x142 0 Vx141 -85.8457924796235
Cx142 x142 xm142 2.82489214445738e-13
Vx142 xm142 0 0
Gx142_2 x142 0 u2 0 0.001534933363423
Rx143 x143 0 1
Fxc143_144 x143 0 Vx144 5.90482240736867
Cx143 x143 xm143 1.25157800297801e-12
Vx143 xm143 0 0
Gx143_2 x143 0 u2 0 -0.021421452301847
Rx144 x144 0 1
Fxc144_143 x144 0 Vx143 -20.9739840219842
Cx144 x144 xm144 1.25157800297801e-12
Vx144 xm144 0 0
Gx144_2 x144 0 u2 0 0.449293198306636
Rx145 x145 0 1
Fxc145_146 x145 0 Vx146 75.1311877867193
Cx145 x145 xm145 1.51094605540703e-12
Vx145 xm145 0 0
Gx145_2 x145 0 u2 0 -0.0541338253751461
Rx146 x146 0 1
Fxc146_145 x146 0 Vx145 -1.32367213232931
Cx146 x146 xm146 1.51094605540703e-12
Vx146 xm146 0 0
Gx146_2 x146 0 u2 0 0.071655436065462
Rx147 x147 0 1
Fxc147_148 x147 0 Vx148 26.4827669935933
Cx147 x147 xm147 1.70972884859627e-12
Vx147 xm147 0 0
Gx147_2 x147 0 u2 0 -0.0157240174750674
Rx148 x148 0 1
Fxc148_147 x148 0 Vx147 -3.41762555710375
Cx148 x148 xm148 1.70972884859627e-12
Vx148 xm148 0 0
Gx148_2 x148 0 u2 0 0.0537388039831365
Rx149 x149 0 1
Fxc149_150 x149 0 Vx150 4.90806690144271
Cx149 x149 xm149 1.61515298397391e-12
Vx149 xm149 0 0
Gx149_2 x149 0 u2 0 -0.0053071238425388
Rx150 x150 0 1
Fxc150_149 x150 0 Vx149 -31.8385219732171
Cx150 x150 xm150 1.61515298397391e-12
Vx150 xm150 0 0
Gx150_2 x150 0 u2 0 0.168970979075256
Rx151 x151 0 1
Fxc151_152 x151 0 Vx152 3.33564145012427
Cx151 x151 xm151 3.3832600882424e-12
Vx151 xm151 0 0
Gx151_2 x151 0 u2 0 -0.107401191029852
Rx152 x152 0 1
Fxc152_151 x152 0 Vx151 -10.4705516268112
Cx152 x152 xm152 3.3832600882424e-12
Vx152 xm152 0 0
Gx152_2 x152 0 u2 0 1.12454971545908
Rx153 x153 0 1
Fxc153_154 x153 0 Vx154 4.59607910724032
Cx153 x153 xm153 6.36249392361281e-12
Vx153 xm153 0 0
Gx153_2 x153 0 u2 0 -0.219549995998787
Rx154 x154 0 1
Fxc154_153 x154 0 Vx153 -3.70326767108602
Cx154 x154 xm154 6.36249392361281e-12
Vx154 xm154 0 0
Gx154_2 x154 0 u2 0 0.813052402369373
Rx155 x155 0 1
Fxc155_156 x155 0 Vx156 31.1087663218418
Cx155 x155 xm155 4.08890323417608e-12
Vx155 xm155 0 0
Gx155_2 x155 0 u2 0 -0.00446614223321578
Rx156 x156 0 1
Fxc156_155 x156 0 Vx155 -1.71066564091351
Cx156 x156 xm156 4.08890323417608e-12
Vx156 xm156 0 0
Gx156_2 x156 0 u2 0 0.00764007606579495
Rx157 x157 0 1
Fxc157_158 x157 0 Vx158 5.71439220701276
Cx157 x157 xm157 1.41898003518717e-11
Vx157 xm157 0 0
Gx157_2 x157 0 u2 0 -0.560700405408673
Rx158 x158 0 1
Fxc158_157 x158 0 Vx157 -1.16884670902194
Cx158 x158 xm158 1.41898003518717e-11
Vx158 xm158 0 0
Gx158_2 x158 0 u2 0 0.655372823609195
Rx159 x159 0 1
Fxc159_160 x159 0 Vx160 1.72311443495368
Cx159 x159 xm159 3.02223658791127e-11
Vx159 xm159 0 0
Gx159_2 x159 0 u2 0 -0.628812427346403
Rx160 x160 0 1
Fxc160_159 x160 0 Vx159 -1.42723657161402
Cx160 x160 xm160 3.02223658791127e-11
Vx160 xm160 0 0
Gx160_2 x160 0 u2 0 0.897464092994171
Rx161 x161 0 1
Fxc161_162 x161 0 Vx162 3.90044888591569
Cx161 x161 xm161 1.30273315544064e-11
Vx161 xm161 0 0
Gx161_2 x161 0 u2 0 -0.00042427500476389
Rx162 x162 0 1
Fxc162_161 x162 0 Vx161 -7.64492386011162
Cx162 x162 xm162 1.30273315544064e-11
Vx162 xm162 0 0
Gx162_2 x162 0 u2 0 0.00324355010716844
Rx163 x163 0 1
Fxc163_164 x163 0 Vx164 14.6886133860057
Cx163 x163 xm163 4.87133831260231e-12
Vx163 xm163 0 0
Gx163_2 x163 0 u2 0 -2.337291065694e-05
Rx164 x164 0 1
Fxc164_163 x164 0 Vx163 -18.5859597307902
Cx164 x164 xm164 4.87133831260231e-12
Vx164 xm164 0 0
Gx164_2 x164 0 u2 0 0.000434407976261244
Rx165 x165 0 1
Fxc165_166 x165 0 Vx166 0.883423787931558
Cx165 x165 xm165 7.06557064659634e-11
Vx165 xm165 0 0
Gx165_2 x165 0 u2 0 -0.153494392321192
Rx166 x166 0 1
Fxc166_165 x166 0 Vx165 -1.70926725354214
Cx166 x166 xm166 7.06557064659634e-11
Vx166 xm166 0 0
Gx166_2 x166 0 u2 0 0.262362938396962
Rx167 x167 0 1
Fxc167_168 x167 0 Vx168 124.098488416375
Cx167 x167 xm167 9.00586691578378e-12
Vx167 xm167 0 0
Gx167_2 x167 0 u2 0 -1.47921737094881e-05
Rx168 x168 0 1
Fxc168_167 x168 0 Vx167 -2.75761814643032
Cx168 x168 xm168 9.00586691578378e-12
Vx168 xm168 0 0
Gx168_2 x168 0 u2 0 4.0791166646434e-05
Rx169 x169 0 1
Fxc169_170 x169 0 Vx170 163.851006608003
Cx169 x169 xm169 6.72924348226814e-13
Vx169 xm169 0 0
Gx169_2 x169 0 u2 0 -1.57729814895469e-08
Rx170 x170 0 1
Fxc170_169 x170 0 Vx169 -387.360098261158
Cx170 x170 xm170 6.72924348226814e-13
Vx170 xm170 0 0
Gx170_2 x170 0 u2 0 6.10982365966232e-06
Rx171 x171 0 1
Fxc171_172 x171 0 Vx172 306.207387820098
Cx171 x171 xm171 7.40586010206479e-13
Vx171 xm171 0 0
Gx171_2 x171 0 u2 0 -2.41648663461334e-08
Rx172 x172 0 1
Fxc172_171 x172 0 Vx171 -194.551709607962
Cx172 x172 xm172 7.40586010206479e-13
Vx172 xm172 0 0
Gx172_2 x172 0 u2 0 4.70131606008815e-06
Rx173 x173 0 1
Fxc173_174 x173 0 Vx174 0.0160355726388108
Cx173 x173 xm173 2.7189670410967e-10
Vx173 xm173 0 0
Gx173_2 x173 0 u2 0 -0.252181174893651
Rx174 x174 0 1
Fxc174_173 x174 0 Vx173 -0.385129907307044
Cx174 x174 xm174 2.7189670410967e-10
Vx174 xm174 0 0
Gx174_2 x174 0 u2 0 0.0971225125113733
Rx175 x175 0 1
Fxc175_176 x175 0 Vx176 3883.8368971596
Cx175 x175 xm175 3.4033679671408e-13
Vx175 xm175 0 0
Gx175_2 x175 0 u2 0 -6.43742142732494e-09
Rx176 x176 0 1
Fxc176_175 x176 0 Vx175 -83.2679881232261
Cx176 x176 xm176 3.40336796714079e-13
Vx176 xm176 0 0
Gx176_2 x176 0 u2 0 5.36031130954695e-07
Rx177 x177 0 1
Fxc177_178 x177 0 Vx178 5.0724427210576
Cx177 x177 xm177 1.77838009044698e-11
Vx177 xm177 0 0
Gx177_2 x177 0 u2 0 -6.61619443070564e-05
Rx178 x178 0 1
Fxc178_177 x178 0 Vx177 -25.0008412330546
Cx178 x178 xm178 1.77838009044698e-11
Vx178 xm178 0 0
Gx178_2 x178 0 u2 0 0.00165410426529092
Rx179 x179 0 1
Fxc179_180 x179 0 Vx180 13845.9175377635
Cx179 x179 xm179 6.45459166206642e-14
Vx179 xm179 0 0
Gx179_2 x179 0 u2 0 -1.69814103132952e-09
Rx180 x180 0 1
Fxc180_179 x180 0 Vx179 -725.195731764376
Cx180 x180 xm180 6.45459166206643e-14
Vx180 xm180 0 0
Gx180_2 x180 0 u2 0 1.23148462785412e-06
Rx181 x181 0 1
Fxc181_182 x181 0 Vx182 39.6679773982074
Cx181 x181 xm181 3.60587813907164e-12
Vx181 xm181 0 0
Gx181_2 x181 0 u2 0 -7.30635638620476e-07
Rx182 x182 0 1
Fxc182_181 x182 0 Vx181 -85.5570048481699
Cx182 x182 xm182 3.60587813907164e-12
Vx182 xm182 0 0
Gx182_2 x182 0 u2 0 6.25109968756977e-05
Rx183 x183 0 1
Fxc183_184 x183 0 Vx184 17.5544024554666
Cx183 x183 xm183 1.33799391561211e-11
Vx183 xm183 0 0
Gx183_2 x183 0 u2 0 -6.30271842872257e-05
Rx184 x184 0 1
Fxc184_183 x184 0 Vx183 -16.22048460148
Cx184 x184 xm184 1.33799391561211e-11
Vx184 xm184 0 0
Gx184_2 x184 0 u2 0 0.00102233147220559
Rx185 x185 0 1
Fxc185_186 x185 0 Vx186 6.47967426392752
Cx185 x185 xm185 2.86431819527606e-12
Vx185 xm185 0 0
Gx185_2 x185 0 u2 0 -5.60577663614379e-08
Rx186 x186 0 1
Fxc186_185 x186 0 Vx185 -892.679963091082
Cx186 x186 xm186 2.86431819527606e-12
Vx186 xm186 0 0
Gx186_2 x186 0 u2 0 5.00416448064969e-05
Rx187 x187 0 1
Fxc187_188 x187 0 Vx188 16.3853652031555
Cx187 x187 xm187 7.0808537117008e-12
Vx187 xm187 0 0
Gx187_2 x187 0 u2 0 -4.08177704341213e-06
Rx188 x188 0 1
Fxc188_187 x188 0 Vx187 -65.7192053528268
Cx188 x188 xm188 7.0808537117008e-12
Vx188 xm188 0 0
Gx188_2 x188 0 u2 0 0.000268251143720456
Rx189 x189 0 1
Fxc189_190 x189 0 Vx190 191.492139995185
Cx189 x189 xm189 8.39484573603046e-12
Vx189 xm189 0 0
Gx189_2 x189 0 u2 0 -6.84059839155567e-06
Rx190 x190 0 1
Fxc190_189 x190 0 Vx189 -4.51660616312773
Cx190 x190 xm190 8.39484573603046e-12
Vx190 xm190 0 0
Gx190_2 x190 0 u2 0 3.0896288854782e-05
Rx191 x191 0 1
Fxc191_192 x191 0 Vx192 1656.04860406475
Cx191 x191 xm191 2.83045279415423e-13
Vx191 xm191 0 0
Gx191_2 x191 0 u2 0 -5.52656520350403e-09
Rx192 x192 0 1
Fxc192_191 x192 0 Vx191 -483.660340290366
Cx192 x192 xm192 2.83045279415423e-13
Vx192 xm192 0 0
Gx192_2 x192 0 u2 0 2.67298040696365e-06
Rx193 x193 0 1
Fxc193_194 x193 0 Vx194 28.4254838316825
Cx193 x193 xm193 5.19274272676225e-12
Vx193 xm193 0 0
Gx193_2 x193 0 u2 0 -4.9669277694326e-07
Rx194 x194 0 1
Fxc194_193 x194 0 Vx193 -94.7959216516197
Cx194 x194 xm194 5.19274272676225e-12
Vx194 xm194 0 0
Gx194_2 x194 0 u2 0 4.70844495680387e-05
Rx195 x195 0 1
Fxc195_196 x195 0 Vx196 1486.56318758971
Cx195 x195 xm195 6.76962091359381e-13
Vx195 xm195 0 0
Gx195_2 x195 0 u2 0 -3.76801335160697e-09
Rx196 x196 0 1
Fxc196_195 x196 0 Vx195 -115.571696649177
Cx196 x196 xm196 6.76962091359381e-13
Vx196 xm196 0 0
Gx196_2 x196 0 u2 0 4.3547569604197e-07
Rx197 x197 0 1
Fxc197_198 x197 0 Vx198 8.04710451777268
Cx197 x197 xm197 1.60390660485385e-11
Vx197 xm197 0 0
Gx197_2 x197 0 u2 0 -1.32944560028944e-05
Rx198 x198 0 1
Fxc198_197 x198 0 Vx197 -39.1667918819358
Cx198 x198 xm198 1.60390660485385e-11
Vx198 xm198 0 0
Gx198_2 x198 0 u2 0 0.000520701191448915
Rx199 x199 0 1
Fxc199_200 x199 0 Vx200 12.5358545634304
Cx199 x199 xm199 3.65373015413682e-11
Vx199 xm199 0 0
Gx199_2 x199 0 u2 0 -0.0001364299139217
Rx200 x200 0 1
Fxc200_199 x200 0 Vx199 -5.52335113139414
Cx200 x200 xm200 3.65373015413682e-11
Vx200 xm200 0 0
Gx200_2 x200 0 u2 0 0.000753550319415429
Rx201 x201 0 1
Fxc201_202 x201 0 Vx202 182.671903429941
Cx201 x201 xm201 4.9605444448296e-12
Vx201 xm201 0 0
Gx201_2 x201 0 u2 0 -4.08322597091157e-07
Rx202 x202 0 1
Fxc202_201 x202 0 Vx201 -25.1794023490687
Cx202 x202 xm202 4.9605444448296e-12
Vx202 xm202 0 0
Gx202_2 x202 0 u2 0 1.02813189603749e-05
Rx203 x203 0 1
Fxc203_204 x203 0 Vx204 2319.34205346775
Cx203 x203 xm203 1.85213203877505e-12
Vx203 xm203 0 0
Gx203_2 x203 0 u2 0 -7.69925061565872e-08
Rx204 x204 0 1
Fxc204_203 x204 0 Vx203 -15.8696730598753
Cx204 x204 xm204 1.85213203877505e-12
Vx204 xm204 0 0
Gx204_2 x204 0 u2 0 1.22184590076548e-06
Rx205 x205 0 1
Fxc205_206 x205 0 Vx206 19.3941995504026
Cx205 x205 xm205 6.12244434678794e-12
Vx205 xm205 0 0
Gx205_2 x205 0 u2 0 -1.24322943943029e-07
Rx206 x206 0 1
Fxc206_205 x206 0 Vx205 -203.052911765391
Cx206 x206 xm206 6.12244434678794e-12
Vx206 xm206 0 0
Gx206_2 x206 0 u2 0 2.52441357668775e-05
Rx207 x207 0 1
Fxc207_208 x207 0 Vx208 279.030231190825
Cx207 x207 xm207 1.14029529690273e-12
Vx207 xm207 0 0