* Equivalent circuit model for HMC539ALP3E_4dB.ckt
.SUBCKT HMC539ALP3E_4dB po1 po2
Vsp1 po1 p1 0
Vsr1 p1 pr1 0
Rp1 pr1 0 50
Ru1 u1 0 50
Fr1 u1 0 Vsr1 -1
Fu1 u1 0 Vsp1 -1
Ry1 y1 0 1
Gy1 p1 0 y1 0 -0.02
Vsp2 po2 p2 0
Vsr2 p2 pr2 0
Rp2 pr2 0 50
Ru2 u2 0 50
Fr2 u2 0 Vsr2 -1
Fu2 u2 0 Vsp2 -1
Ry2 y2 0 1
Gy2 p2 0 y2 0 -0.02
Rx1 x1 0 1
Cx1 x1 0 3.53627063161835e-13
Gx1_1 x1 0 u1 0 -23.3354738307188
Rx2 x2 0 1
Cx2 x2 0 8.59855014759414e-12
Gx2_1 x2 0 u1 0 -146.195139162122
Rx3 x3 0 1
Fxc3_4 x3 0 Vx4 96.5889608593002
Cx3 x3 xm3 1.52013265599724e-13
Vx3 xm3 0 0
Gx3_1 x3 0 u1 0 -0.0143272903577363
Rx4 x4 0 1
Fxc4_3 x4 0 Vx3 -84.6791663726074
Cx4 x4 xm4 1.52013265599724e-13
Vx4 xm4 0 0
Gx4_1 x4 0 u1 0 1.2132230038714
Rx5 x5 0 1
Fxc5_6 x5 0 Vx6 19.7968365880108
Cx5 x5 xm5 1.34030288980988e-11
Vx5 xm5 0 0
Gx5_1 x5 0 u1 0 -123.828239960321
Rx6 x6 0 1
Fxc6_5 x6 0 Vx5 -0.0298487059512434
Cx6 x6 xm6 1.34030288980988e-11
Vx6 xm6 0 0
Gx6_1 x6 0 u1 0 3.69611272303563
Rx7 x7 0 1
Fxc7_8 x7 0 Vx8 303.516760110041
Cx7 x7 xm7 3.10934658884836e-14
Vx7 xm7 0 0
Gx7_1 x7 0 u1 0 -2.32735882357128e-07
Rx8 x8 0 1
Fxc8_7 x8 0 Vx7 -866.471687313706
Cx8 x8 xm8 3.10934658884836e-14
Vx8 xm8 0 0
Gx8_1 x8 0 u1 0 0.000201659052684425
Rx9 x9 0 1
Fxc9_10 x9 0 Vx10 7621.61474146488
Cx9 x9 xm9 8.40733664871429e-15
Vx9 xm9 0 0
Gx9_1 x9 0 u1 0 -1.60216415289659e-08
Rx10 x10 0 1
Fxc10_9 x10 0 Vx9 -476.66364935604
Cx10 x10 xm10 8.40733664871429e-15
Vx10 xm10 0 0
Gx10_1 x10 0 u1 0 7.63693411987119e-06
Rx11 x11 0 1
Fxc11_12 x11 0 Vx12 31466.3025109729
Cx11 x11 xm11 1.94523784543502e-15
Vx11 xm11 0 0
Gx11_1 x11 0 u1 0 -3.14096139534946e-10
Rx12 x12 0 1
Fxc12_11 x12 0 Vx11 -2166.3912177589
Cx12 x12 xm12 1.94523784543502e-15
Vx12 xm12 0 0
Gx12_1 x12 0 u1 0 6.80455118220479e-07
Rx13 x13 0 1
Fxc13_14 x13 0 Vx14 276.511576551915
Cx13 x13 xm13 1.91730724654873e-14
Vx13 xm13 0 0
Gx13_1 x13 0 u1 0 -2.64181685207841e-08
Rx14 x14 0 1
Fxc14_13 x14 0 Vx13 -2554.77379077861
Cx14 x14 xm14 1.91730724654873e-14
Vx14 xm14 0 0
Gx14_1 x14 0 u1 0 6.7492444537272e-05
Rx15 x15 0 1
Fxc15_16 x15 0 Vx16 138.773612037799
Cx15 x15 xm15 4.56584091846018e-14
Vx15 xm15 0 0
Gx15_1 x15 0 u1 0 -3.01357776271498e-07
Rx16 x16 0 1
Fxc16_15 x16 0 Vx15 -903.198020640163
Cx16 x16 xm16 4.56584091846018e-14
Vx16 xm16 0 0
Gx16_1 x16 0 u1 0 0.000272185747032938
Rx17 x17 0 1
Fxc17_18 x17 0 Vx18 124666.448398836
Cx17 x17 xm17 6.22970485029519e-16
Vx17 xm17 0 0
Gx17_1 x17 0 u1 0 -1.81171897085339e-10
Rx18 x18 0 1
Fxc18_17 x18 0 Vx17 -5426.52487040467
Cx18 x18 xm18 6.22970485029519e-16
Vx18 xm18 0 0
Gx18_1 x18 0 u1 0 9.83133805351986e-07
Rx19 x19 0 1
Fxc19_20 x19 0 Vx20 17.5112589039375
Cx19 x19 xm19 1.1019165711965e-12
Vx19 xm19 0 0
Gx19_1 x19 0 u1 0 -0.0616832679103059
Rx20 x20 0 1
Fxc20_19 x20 0 Vx19 -13.6596549192874
Cx20 x20 xm20 1.1019165711965e-12
Vx20 xm20 0 0
Gx20_1 x20 0 u1 0 0.842572153948733
Rx21 x21 0 1
Fxc21_22 x21 0 Vx22 41923.3982965501
Cx21 x21 xm21 4.28178588649374e-16
Vx21 xm21 0 0
Gx21_1 x21 0 u1 0 -2.11246259241297e-10
Rx22 x22 0 1
Fxc22_21 x22 0 Vx21 -34421.1379400114
Cx22 x22 xm22 4.28178588649374e-16
Vx22 xm22 0 0
Gx22_1 x22 0 u1 0 7.27133662865608e-06
Rx23 x23 0 1
Fxc23_24 x23 0 Vx24 3611.81981174937
Cx23 x23 xm23 2.43387977270851e-14
Vx23 xm23 0 0
Gx23_1 x23 0 u1 0 -1.27205224656701e-07
Rx24 x24 0 1
Fxc24_23 x24 0 Vx23 -124.040656070295
Cx24 x24 xm24 2.43387977270851e-14
Vx24 xm24 0 0
Gx24_1 x24 0 u1 0 1.57786195219864e-05
Rx25 x25 0 1
Fxc25_26 x25 0 Vx26 101.367453795337
Cx25 x25 xm25 1.05011663800036e-13
Vx25 xm25 0 0
Gx25_1 x25 0 u1 0 -5.90736051735668e-06
Rx26 x26 0 1
Fxc26_25 x26 0 Vx25 -239.324004079753
Cx26 x26 xm26 1.05011663800036e-13
Vx26 xm26 0 0
Gx26_1 x26 0 u1 0 0.00141377317255644
Rx27 x27 0 1
Fxc27_28 x27 0 Vx28 132.701314661351
Cx27 x27 xm27 1.08883637079586e-14
Vx27 xm27 0 0
Gx27_1 x27 0 u1 0 -1.46671824042291e-09
Rx28 x28 0 1
Fxc28_27 x28 0 Vx27 -17125.4555074516
Cx28 x28 xm28 1.08883637079586e-14
Vx28 xm28 0 0
Gx28_1 x28 0 u1 0 2.51182179683303e-05
Rx29 x29 0 1
Fxc29_30 x29 0 Vx30 686.732174778935
Cx29 x29 xm29 1.79569174984714e-14
Vx29 xm29 0 0
Gx29_1 x29 0 u1 0 -4.02991480661098e-08
Rx30 x30 0 1
Fxc30_29 x30 0 Vx29 -1223.40114623618
Cx30 x30 xm30 1.79569174984714e-14
Vx30 xm30 0 0
Gx30_1 x30 0 u1 0 4.930202393642e-05
Rx31 x31 0 1
Fxc31_32 x31 0 Vx32 705.853631531373
Cx31 x31 xm31 1.89102617067545e-14
Vx31 xm31 0 0
Gx31_1 x31 0 u1 0 -4.48220061496545e-08
Rx32 x32 0 1
Fxc32_31 x32 0 Vx31 -1078.69458135216
Cx32 x32 xm32 1.89102617067545e-14
Vx32 xm32 0 0
Gx32_1 x32 0 u1 0 4.83492551589656e-05
Rx33 x33 0 1
Fxc33_34 x33 0 Vx34 3398.42629107471
Cx33 x33 xm33 1.08306461059872e-14
Vx33 xm33 0 0
Gx33_1 x33 0 u1 0 -1.44661884383519e-08
Rx34 x34 0 1
Fxc34_33 x34 0 Vx33 -686.794643951847
Cx34 x34 xm34 1.08306461059872e-14
Vx34 xm34 0 0
Gx34_1 x34 0 u1 0 9.93530073785823e-06
Rx35 x35 0 1
Fxc35_36 x35 0 Vx36 32.9195435907089
Cx35 x35 xm35 2.09659001892218e-13
Vx35 xm35 0 0
Gx35_1 x35 0 u1 0 -0.000130411267904078
Rx36 x36 0 1
Fxc36_35 x36 0 Vx35 -193.726420201423
Cx36 x36 xm36 2.09659001892218e-13
Vx36 xm36 0 0
Gx36_1 x36 0 u1 0 0.0252641080849858
Rx37 x37 0 1
Fxc37_38 x37 0 Vx38 1682.96727439499
Cx37 x37 xm37 1.6602740464064e-14
Vx37 xm37 0 0
Gx37_1 x37 0 u1 0 -2.47485809847296e-08
Rx38 x38 0 1
Fxc38_37 x38 0 Vx37 -597.485703431046
Cx38 x38 xm38 1.6602740464064e-14
Vx38 xm38 0 0
Gx38_1 x38 0 u1 0 1.47869233185814e-05
Rx39 x39 0 1
Fxc39_40 x39 0 Vx40 476.164953784541
Cx39 x39 xm39 1.17924667928284e-12
Vx39 xm39 0 0
Gx39_1 x39 0 u1 0 -0.189260043541653
Rx40 x40 0 1
Fxc40_39 x40 0 Vx39 -0.489820742772458
Cx40 x40 xm40 1.17924667928284e-12
Vx40 xm40 0 0
Gx40_1 x40 0 u1 0 0.0927034951047201
Rx41 x41 0 1
Fxc41_42 x41 0 Vx42 47.2049658983037
Cx41 x41 xm41 2.25551329603533e-13
Vx41 xm41 0 0
Gx41_1 x41 0 u1 0 -0.000242737201493873
Rx42 x42 0 1
Fxc42_41 x42 0 Vx41 -117.762215125279
Cx42 x42 xm42 2.25551329603533e-13
Vx42 xm42 0 0
Gx42_1 x42 0 u1 0 0.0285852705412296
Rx43 x43 0 1
Fxc43_44 x43 0 Vx44 2217.78939647574
Cx43 x43 xm43 3.84602500012975e-15
Vx43 xm43 0 0
Gx43_1 x43 0 u1 0 -1.01835111571991e-09
Rx44 x44 0 1
Fxc44_43 x44 0 Vx43 -8495.42422056443
Cx44 x44 xm44 3.84602500012975e-15
Vx44 xm44 0 0
Gx44_1 x44 0 u1 0 8.65132473352573e-06
Rx45 x45 0 1
Fxc45_46 x45 0 Vx46 5797.91647742002
Cx45 x45 xm45 9.27706506013979e-15
Vx45 xm45 0 0
Gx45_1 x45 0 u1 0 -9.45866302498017e-09
Rx46 x46 0 1
Fxc46_45 x46 0 Vx45 -563.577085646458
Cx46 x46 xm46 9.27706506013979e-15
Vx46 xm46 0 0
Gx46_1 x46 0 u1 0 5.33068574173024e-06
Rx47 x47 0 1
Fxc47_48 x47 0 Vx48 9871.13909251475
Cx47 x47 xm47 2.25851726135813e-15
Vx47 xm47 0 0
Gx47_1 x47 0 u1 0 -1.09585437116584e-09
Rx48 x48 0 1
Fxc48_47 x48 0 Vx47 -5629.32030229767
Cx48 x48 xm48 2.25851726135813e-15
Vx48 xm48 0 0
Gx48_1 x48 0 u1 0 6.16891525996549e-06
Rx49 x49 0 1
Fxc49_50 x49 0 Vx50 599.401121355322
Cx49 x49 xm49 3.37035623112366e-15
Vx49 xm49 0 0
Gx49_1 x49 0 u1 0 -3.32337891232732e-10
Rx50 x50 0 1
Fxc50_49 x50 0 Vx49 -42021.6872622546
Cx50 x50 xm50 3.37035623112366e-15
Vx50 xm50 0 0
Gx50_1 x50 0 u1 0 1.39653989307791e-05
Rx51 x51 0 1
Fxc51_52 x51 0 Vx52 553.124137716997
Cx51 x51 xm51 1.88174133254326e-14
Vx51 xm51 0 0
Gx51_1 x51 0 u1 0 -2.58257075907216e-08
Rx52 x52 0 1
Fxc52_51 x52 0 Vx51 -1466.44427570381
Cx52 x52 xm52 1.88174133254326e-14
Vx52 xm52 0 0
Gx52_1 x52 0 u1 0 3.78719610624142e-05
Rx53 x53 0 1
Fxc53_54 x53 0 Vx54 744.139564932269
Cx53 x53 xm53 1.207285936914e-14
Vx53 xm53 0 0
Gx53_1 x53 0 u1 0 -6.69318298580556e-09
Rx54 x54 0 1
Fxc54_53 x54 0 Vx53 -2666.66408656669
Cx54 x54 xm54 1.207285936914e-14
Vx54 xm54 0 0
Gx54_1 x54 0 u1 0 1.78484706930669e-05
Rx55 x55 0 1
Fxc55_56 x55 0 Vx56 3296.72413306488
Cx55 x55 xm55 1.59455172364102e-14
Vx55 xm55 0 0
Gx55_1 x55 0 u1 0 -1.38536433290349e-07
Rx56 x56 0 1
Fxc56_55 x56 0 Vx55 -348.125345022652
Cx56 x56 xm56 1.59455172364102e-14
Vx56 xm56 0 0
Gx56_1 x56 0 u1 0 4.82280436374105e-05
Rx57 x57 0 1
Fxc57_58 x57 0 Vx58 1444.7258862366
Cx57 x57 xm57 1.4256037936421e-14
Vx57 xm57 0 0
Gx57_1 x57 0 u1 0 -7.92138180885543e-08
Rx58 x58 0 1
Fxc58_57 x58 0 Vx57 -993.343810214827
Cx58 x58 xm58 1.4256037936421e-14
Vx58 xm58 0 0
Gx58_1 x58 0 u1 0 7.86865558817488e-05
Rx59 x59 0 1
Fxc59_60 x59 0 Vx60 91.7841654908644
Cx59 x59 xm59 1.54588556473979e-13
Vx59 xm59 0 0
Gx59_1 x59 0 u1 0 -1.7704566765159e-05
Rx60 x60 0 1
Fxc60_59 x60 0 Vx59 -135.366540724299
Cx60 x60 xm60 1.54588556473979e-13
Vx60 xm60 0 0
Gx60_1 x60 0 u1 0 0.00239660595802197
Rx61 x61 0 1
Fxc61_62 x61 0 Vx62 1175.9789421607
Cx61 x61 xm61 1.36270438718843e-15
Vx61 xm61 0 0
Gx61_1 x61 0 u1 0 -1.15562283929119e-11
Rx62 x62 0 1
Fxc62_61 x62 0 Vx61 -135174.510908694
Cx62 x62 xm62 1.36270438718843e-15
Vx62 xm62 0 0
Gx62_1 x62 0 u1 0 1.56210752096102e-06
Rx63 x63 0 1
Fxc63_64 x63 0 Vx64 275.384762980406
Cx63 x63 xm63 1.8842536609155e-14
Vx63 xm63 0 0
Gx63_1 x63 0 u1 0 -1.04777195177397e-08
Rx64 x64 0 1
Fxc64_63 x64 0 Vx63 -3032.8475700867
Cx64 x64 xm64 1.8842536609155e-14
Vx64 xm64 0 0
Gx64_1 x64 0 u1 0 3.17773261794268e-05
Rx65 x65 0 1
Fxc65_66 x65 0 Vx66 248.237264038468
Cx65 x65 xm65 2.58532363902921e-14
Vx65 xm65 0 0
Gx65_1 x65 0 u1 0 -3.37615437603464e-08
Rx66 x66 0 1
Fxc66_65 x66 0 Vx65 -1796.25712173453
Cx66 x66 xm66 2.58532363902921e-14
Vx66 xm66 0 0
Gx66_1 x66 0 u1 0 6.06444134202744e-05
Rx67 x67 0 1
Fxc67_68 x67 0 Vx68 6512.74600592457
Cx67 x67 xm67 4.40227995829476e-15
Vx67 xm67 0 0
Gx67_1 x67 0 u1 0 -1.4854945859221e-09
Rx68 x68 0 1
Fxc68_67 x68 0 Vx67 -2376.37011567801
Cx68 x68 xm68 4.40227995829476e-15
Vx68 xm68 0 0
Gx68_1 x68 0 u1 0 3.53008494098676e-06
Rx69 x69 0 1
Fxc69_70 x69 0 Vx70 1195.14057961071
Cx69 x69 xm69 2.0912663085398e-14
Vx69 xm69 0 0
Gx69_1 x69 0 u1 0 -4.11924789406929e-08
Rx70 x70 0 1
Fxc70_69 x70 0 Vx69 -578.551412630745
Cx70 x70 xm70 2.0912663085398e-14
Vx70 xm70 0 0
Gx70_1 x70 0 u1 0 2.38319668809001e-05
Rx71 x71 0 1
Fxc71_72 x71 0 Vx72 1082.09640680966
Cx71 x71 xm71 6.45713973054353e-15
Vx71 xm71 0 0
Gx71_1 x71 0 u1 0 -1.14044157455275e-09
Rx72 x72 0 1
Fxc72_71 x72 0 Vx71 -6758.38775284539
Cx72 x72 xm72 6.45713973054353e-15
Vx72 xm72 0 0
Gx72_1 x72 0 u1 0 7.707546370293e-06
Rx73 x73 0 1
Fxc73_74 x73 0 Vx74 1206.12578085641
Cx73 x73 xm73 7.88540425403586e-15
Vx73 xm73 0 0
Gx73_1 x73 0 u1 0 -1.15559666205946e-09
Rx74 x74 0 1
Fxc74_73 x74 0 Vx73 -4088.78232534124
Cx74 x74 xm74 7.88540425403586e-15
Vx74 xm74 0 0
Gx74_1 x74 0 u1 0 4.72498320705204e-06
Rx75 x75 0 1
Fxc75_76 x75 0 Vx76 61.6537369217556
Cx75 x75 xm75 1.62084283086177e-13
Vx75 xm75 0 0
Gx75_1 x75 0 u1 0 -1.01303717079158e-05
Rx76 x76 0 1
Fxc76_75 x76 0 Vx75 -201.70635215655
Cx76 x76 xm76 1.62084283086177e-13
Vx76 xm76 0 0
Gx76_1 x76 0 u1 0 0.00204336032319362
Rx77 x77 0 1
Fxc77_78 x77 0 Vx78 1686.83077689263
Cx77 x77 xm77 5.31549963067726e-14
Vx77 xm77 0 0
Gx77_1 x77 0 u1 0 -3.85153608469495e-07
Rx78 x78 0 1
Fxc78_77 x78 0 Vx77 -65.1882136985263
Cx78 x78 xm78 5.31549963067726e-14
Vx78 xm78 0 0
Gx78_1 x78 0 u1 0 2.5107475735668e-05
Rx79 x79 0 1
Fxc79_80 x79 0 Vx80 95.629611751479
Cx79 x79 xm79 1.78816112180161e-14
Vx79 xm79 0 0
Gx79_1 x79 0 u1 0 -2.23754529116245e-09
Rx80 x80 0 1
Fxc80_79 x80 0 Vx79 -10120.1990918297
Cx80 x80 xm80 1.78816112180161e-14
Vx80 xm80 0 0
Gx80_1 x80 0 u1 0 2.26444038235499e-05
Rx81 x81 0 1
Fxc81_82 x81 0 Vx82 1535.76946999461
Cx81 x81 xm81 7.76754927887759e-15
Vx81 xm81 0 0
Gx81_1 x81 0 u1 0 -3.38084315624999e-10
Rx82 x82 0 1
Fxc82_81 x82 0 Vx81 -3372.5035410279
Cx82 x82 xm82 7.76754927887759e-15
Vx82 xm82 0 0
Gx82_1 x82 0 u1 0 1.1401905516113e-06
Rx83 x83 0 1
Fxc83_84 x83 0 Vx84 21025.0722219935
Cx83 x83 xm83 1.25557410678191e-15
Vx83 xm83 0 0
Gx83_1 x83 0 u1 0 -6.68887450808163e-11
Rx84 x84 0 1
Fxc84_83 x84 0 Vx83 -9486.03810211623
Cx84 x84 xm84 1.25557410678191e-15
Vx84 xm84 0 0
Gx84_1 x84 0 u1 0 6.34509184439363e-07
Rx85 x85 0 1
Fxc85_86 x85 0 Vx86 681.323069053088
Cx85 x85 xm85 1.63787697489454e-14
Vx85 xm85 0 0
Gx85_1 x85 0 u1 0 -7.82250989938739e-09
Rx86 x86 0 1
Fxc86_85 x86 0 Vx85 -1789.60005859728
Cx86 x86 xm86 1.63787697489454e-14
Vx86 xm86 0 0
Gx86_1 x86 0 u1 0 1.39991641743215e-05
Rx87 x87 0 1
Fxc87_88 x87 0 Vx88 1708.08094626546
Cx87 x87 xm87 1.19981261746115e-15
Vx87 xm87 0 0
Gx87_1 x87 0 u1 0 -3.10458603563905e-11
Rx88 x88 0 1
Fxc88_87 x88 0 Vx87 -128626.540410533
Cx88 x88 xm88 1.19981261746115e-15
Vx88 xm88 0 0
Gx88_1 x88 0 u1 0 3.99332161171104e-06
Rx89 x89 0 1
Fxc89_90 x89 0 Vx90 286644.320976722
Cx89 x89 xm89 6.90011418477151e-16
Vx89 xm89 0 0
Gx89_1 x89 0 u1 0 -4.82826706878645e-10
Rx90 x90 0 1
Fxc90_89 x90 0 Vx89 -2385.8102256165
Cx90 x90 xm90 6.90011418477151e-16
Vx90 xm90 0 0
Gx90_1 x90 0 u1 0 1.15193289447181e-06
Rx91 x91 0 1
Fxc91_92 x91 0 Vx92 22093.311097251
Cx91 x91 xm91 1.91401504019507e-14
Vx91 xm91 0 0
Gx91_1 x91 0 u1 0 -4.26919507825896e-08
Rx92 x92 0 1
Fxc92_91 x92 0 Vx91 -39.79721599417
Cx92 x92 xm92 1.91401504019507e-14
Vx92 xm92 0 0
Gx92_1 x92 0 u1 0 1.6990207865072e-06
Rx93 x93 0 1
Fxc93_94 x93 0 Vx94 375.010594704786
Cx93 x93 xm93 2.78471100161717e-14
Vx93 xm93 0 0
Gx93_1 x93 0 u1 0 -6.39670943163263e-08
Rx94 x94 0 1
Fxc94_93 x94 0 Vx93 -1111.87956349289
Cx94 x94 xm94 2.78471100161717e-14
Vx94 xm94 0 0
Gx94_1 x94 0 u1 0 7.11237049063456e-05
Rx95 x95 0 1
Fxc95_96 x95 0 Vx96 13848.6792413956
Cx95 x95 xm95 7.87159377020613e-15
Vx95 xm95 0 0
Gx95_1 x95 0 u1 0 -3.19927800555257e-09
Rx96 x96 0 1
Fxc96_95 x96 0 Vx95 -371.264226747332
Cx96 x96 xm96 7.87159377020613e-15
Vx96 xm96 0 0
Gx96_1 x96 0 u1 0 1.18777747488122e-06
Rx97 x97 0 1
Fxc97_98 x97 0 Vx98 8.75011579927194
Cx97 x97 xm97 1.06813886291274e-12
Vx97 xm97 0 0
Gx97_1 x97 0 u1 0 -0.0406239272061045
Rx98 x98 0 1
Fxc98_97 x98 0 Vx97 -33.8662177042959
Cx98 x98 xm98 1.06813886291274e-12
Vx98 xm98 0 0
Gx98_1 x98 0 u1 0 1.37577876276541
Rx99 x99 0 1
Fxc99_100 x99 0 Vx100 10978.5499609988
Cx99 x99 xm99 5.25955260177112e-15
Vx99 xm99 0 0
Gx99_1 x99 0 u1 0 -1.85691748334487e-09
Rx100 x100 0 1
Fxc100_99 x100 0 Vx99 -1083.44784659305
Cx100 x100 xm100 5.25955260177112e-15
Vx100 xm100 0 0
Gx100_1 x100 0 u1 0 2.01187324863099e-06
Rx101 x101 0 1
Fxc101_102 x101 0 Vx102 628.943509862508
Cx101 x101 xm101 2.76085682247672e-14
Vx101 xm101 0 0
Gx101_1 x101 0 u1 0 -6.11681673256886e-08
Rx102 x102 0 1
Fxc102_101 x102 0 Vx101 -691.740691831882
Cx102 x102 xm102 2.76085682247672e-14
Vx102 xm102 0 0
Gx102_1 x102 0 u1 0 4.23125103839601e-05
Rx103 x103 0 1
Fxc103_104 x103 0 Vx104 606.599086946569
Cx103 x103 xm103 1.46519190092729e-14
Vx103 xm103 0 0
Gx103_1 x103 0 u1 0 -7.4927294404879e-09
Rx104 x104 0 1
Fxc104_103 x104 0 Vx103 -2562.99407233946
Cx104 x104 xm104 1.46519190092729e-14
Vx104 xm104 0 0
Gx104_1 x104 0 u1 0 1.92038211416139e-05
Rx105 x105 0 1
Fxc105_106 x105 0 Vx106 1463.83671763519
Cx105 x105 xm105 2.19788949285279e-14
Vx105 xm105 0 0
Gx105_1 x105 0 u1 0 -3.16477233836375e-08
Rx106 x106 0 1
Fxc106_105 x106 0 Vx105 -475.981534615473
Cx106 x106 xm106 2.19788949285279e-14
Vx106 xm106 0 0
Gx106_1 x106 0 u1 0 1.50637319432298e-05
Rx107 x107 0 1
Fxc107_108 x107 0 Vx108 511.712555444263
Cx107 x107 xm107 8.20375533487514e-14
Vx107 xm107 0 0
Gx107_1 x107 0 u1 0 -1.4465913024119e-06
Rx108 x108 0 1
Fxc108_107 x108 0 Vx107 -98.7065960828127
Cx108 x108 xm108 8.20375533487514e-14
Vx108 xm108 0 0
Gx108_1 x108 0 u1 0 0.000142788103384082
Rx109 x109 0 1
Fxc109_110 x109 0 Vx110 1840.08911733932
Cx109 x109 xm109 7.51272397073094e-15
Vx109 xm109 0 0
Gx109_1 x109 0 u1 0 -2.63856145339527e-09
Rx110 x110 0 1
Fxc110_109 x110 0 Vx109 -3281.78228604659
Cx110 x110 xm110 7.51272397073094e-15
Vx110 xm110 0 0
Gx110_1 x110 0 u1 0 8.65918423839794e-06
Rx111 x111 0 1
Fxc111_112 x111 0 Vx112 534.755990268543
Cx111 x111 xm111 1.25924088295157e-14
Vx111 xm111 0 0
Gx111_1 x111 0 u1 0 -2.0471663695567e-09
Rx112 x112 0 1
Fxc112_111 x112 0 Vx111 -4349.39000170155
Cx112 x112 xm112 1.25924088295157e-14
Vx112 xm112 0 0
Gx112_1 x112 0 u1 0 8.90392493956957e-06
Rx113 x113 0 1
Fxc113_114 x113 0 Vx114 149.866737948217
Cx113 x113 xm113 3.99671423619986e-14
Vx113 xm113 0 0
Gx113_1 x113 0 u1 0 -4.59375822675306e-08
Rx114 x114 0 1
Fxc114_113 x114 0 Vx113 -1531.92935076511
Cx114 x114 xm114 3.99671423619987e-14
Vx114 xm114 0 0
Gx114_1 x114 0 u1 0 7.03731305788168e-05
Rx115 x115 0 1
Fxc115_116 x115 0 Vx116 10545.6478758616
Cx115 x115 xm115 4.75295253243805e-15
Vx115 xm115 0 0
Gx115_1 x115 0 u1 0 -2.2487729127759e-09
Rx116 x116 0 1
Fxc116_115 x116 0 Vx115 -1448.25980659277
Cx116 x116 xm116 4.75295253243805e-15
Vx116 xm116 0 0
Gx116_1 x116 0 u1 0 3.25680742372789e-06
Rx117 x117 0 1
Fxc117_118 x117 0 Vx118 681.911447470694
Cx117 x117 xm117 3.41070990725561e-14
Vx117 xm117 0 0
Gx117_1 x117 0 u1 0 -7.94259015202656e-08
Rx118 x118 0 1
Fxc118_117 x118 0 Vx117 -437.145456629005
Cx118 x118 xm118 3.41070990725561e-14
Vx118 xm118 0 0
Gx118_1 x118 0 u1 0 3.47206719882468e-05
Rx119 x119 0 1
Fxc119_120 x119 0 Vx120 3927.86052023466
Cx119 x119 xm119 9.91623794270551e-15
Vx119 xm119 0 0
Gx119_1 x119 0 u1 0 -3.83159739907986e-09
Rx120 x120 0 1
Fxc120_119 x120 0 Vx119 -903.259681021793
Cx120 x120 xm120 9.91623794270551e-15
Vx120 xm120 0 0
Gx120_1 x120 0 u1 0 3.46092744449681e-06
Rx121 x121 0 1
Fxc121_122 x121 0 Vx122 672.490742606125
Cx121 x121 xm121 2.22232201775079e-14
Vx121 xm121 0 0
Gx121_1 x121 0 u1 0 -2.19041004489507e-08
Rx122 x122 0 1
Fxc122_121 x122 0 Vx121 -1093.78293184411
Cx122 x122 xm122 2.22232201775079e-14
Vx122 xm122 0 0
Gx122_1 x122 0 u1 0 2.39583312084613e-05
Rx123 x123 0 1
Fxc123_124 x123 0 Vx124 1424.64634121618
Cx123 x123 xm123 5.17797017606527e-15
Vx123 xm123 0 0
Gx123_1 x123 0 u1 0 -4.81135246026594e-10
Rx124 x124 0 1
Fxc124_123 x124 0 Vx123 -9202.05808625698
Cx124 x124 xm124 5.17797017606527e-15
Vx124 xm124 0 0
Gx124_1 x124 0 u1 0 4.42743448128226e-06
Rx125 x125 0 1
Fxc125_126 x125 0 Vx126 393.964226248637
Cx125 x125 xm125 4.46596707298567e-14
Vx125 xm125 0 0
Gx125_1 x125 0 u1 0 -2.47449617543097e-07
Rx126 x126 0 1
Fxc126_125 x126 0 Vx125 -453.75387202112
Cx126 x126 xm126 4.46596707298567e-14
Vx126 xm126 0 0
Gx126_1 x126 0 u1 0 0.000112281222090325
Rx127 x127 0 1
Fxc127_128 x127 0 Vx128 1174.69871746606
Cx127 x127 xm127 1.25147099405371e-14
Vx127 xm127 0 0
Gx127_1 x127 0 u1 0 -6.77009308214809e-09
Rx128 x128 0 1
Fxc128_127 x128 0 Vx127 -1964.69277457512
Cx128 x128 xm128 1.25147099405371e-14
Vx128 xm128 0 0
Gx128_1 x128 0 u1 0 1.33011529616974e-05
Rx129 x129 0 1
Fxc129_130 x129 0 Vx130 1415.58288437931
Cx129 x129 xm129 3.07868023406084e-14
Vx129 xm129 0 0
Gx129_1 x129 0 u1 0 -1.0579300204017e-07
Rx130 x130 0 1
Fxc130_129 x130 0 Vx129 -267.277316448364
Cx130 x130 xm130 3.07868023406084e-14
Vx130 xm130 0 0
Gx130_1 x130 0 u1 0 2.8276069684313e-05
Rx131 x131 0 1
Fxc131_132 x131 0 Vx132 805.91935992515
Cx131 x131 xm131 5.4585280782342e-15
Vx131 xm131 0 0
Gx131_1 x131 0 u1 0 -5.60153059722672e-10
Rx132 x132 0 1
Fxc132_131 x132 0 Vx131 -14854.0843048736
Cx132 x132 xm132 5.4585280782342e-15
Vx132 xm132 0 0
Gx132_1 x132 0 u1 0 8.32056077275346e-06
Rx133 x133 0 1
Fxc133_134 x133 0 Vx134 12.6887732169287
Cx133 x133 xm133 2.51329289587019e-12
Vx133 xm133 0 0
Gx133_1 x133 0 u1 0 -1.07071429988905
Rx134 x134 0 1
Fxc134_133 x134 0 Vx133 -5.34166240603459
Cx134 x134 xm134 2.51329289587019e-12
Vx134 xm134 0 0
Gx134_1 x134 0 u1 0 5.71939432332099
Rx135 x135 0 1
Fxc135_136 x135 0 Vx136 135.73862234201
Cx135 x135 xm135 3.57049647256315e-13
Vx135 xm135 0 0
Gx135_1 x135 0 u1 0 -0.000179883802904531
Rx136 x136 0 1
Fxc136_135 x136 0 Vx135 -23.7418745932653
Cx136 x136 xm136 3.57049647256315e-13
Vx136 xm136 0 0
Gx136_1 x136 0 u1 0 0.00427077868991902
Rx137 x137 0 1
Fxc137_138 x137 0 Vx138 428.13489270737
Cx137 x137 xm137 4.5035441503013e-14
Vx137 xm137 0 0
Gx137_1 x137 0 u1 0 -1.37186306748478e-07
Rx138 x138 0 1
Fxc138_137 x138 0 Vx137 -427.576045386489
Cx138 x138 xm138 4.5035441503013e-14
Vx138 xm138 0 0
Gx138_1 x138 0 u1 0 5.86575785206919e-05
Rx139 x139 0 1
Fxc139_140 x139 0 Vx140 1535.85616609788
Cx139 x139 xm139 8.56467633357547e-15
Vx139 xm139 0 0
Gx139_1 x139 0 u1 0 -1.22149616518128e-09
Rx140 x140 0 1
Fxc140_139 x140 0 Vx139 -3327.27372575882
Cx140 x140 xm140 8.56467633357547e-15
Vx140 xm140 0 0
Gx140_1 x140 0 u1 0 4.06425209652283e-06
Rx141 x141 0 1
Fxc141_142 x141 0 Vx142 171.094267029573
Cx141 x141 xm141 8.27372304605411e-14
Vx141 xm141 0 0
Gx141_1 x141 0 u1 0 -5.0313737612082e-07
Rx142 x142 0 1
Fxc142_141 x142 0 Vx141 -343.938297227506
Cx142 x142 xm142 8.27372304605411e-14
Vx142 xm142 0 0
Gx142_1 x142 0 u1 0 0.00017304821241451
Rx143 x143 0 1
Fxc143_144 x143 0 Vx144 1206.58470663483
Cx143 x143 xm143 1.66721817308413e-14
Vx143 xm143 0 0
Gx143_1 x143 0 u1 0 -1.35794105530886e-08
Rx144 x144 0 1
Fxc144_143 x144 0 Vx143 -1123.56307144083
Cx144 x144 xm144 1.66721817308413e-14
Vx144 xm144 0 0
Gx144_1 x144 0 u1 0 1.52573242293843e-05
Rx145 x145 0 1
Fxc145_146 x145 0 Vx146 2195.49276741284
Cx145 x145 xm145 7.00529634671639e-14
Vx145 xm145 0 0
Gx145_1 x145 0 u1 0 -9.28851351565625e-07
Rx146 x146 0 1
Fxc146_145 x146 0 Vx145 -35.0443706113712
Cx146 x146 xm146 7.0052963467164e-14
Vx146 xm146 0 0
Gx146_1 x146 0 u1 0 3.25510110071388e-05
Rx147 x147 0 1
Fxc147_148 x147 0 Vx148 17296.6665638803
Cx147 x147 xm147 1.10677227211622e-16
Vx147 xm147 0 0
Gx147_1 x147 0 u1 0 -8.89803244945423e-13
Rx148 x148 0 1
Fxc148_147 x148 0 Vx147 -1895934.61538509
Cx148 x148 xm148 1.10677227211622e-16
Vx148 xm148 0 0
Gx148_1 x148 0 u1 0 1.687008772974e-06
Rx149 x149 0 1
Fxc149_150 x149 0 Vx150 9028.42462041655
Cx149 x149 xm149 1.5846769699005e-14
Vx149 xm149 0 0
Gx149_1 x149 0 u1 0 -1.03467434743729e-08
Rx150 x150 0 1
Fxc150_149 x150 0 Vx149 -175.300173553119
Cx150 x150 xm150 1.5846769699005e-14
Vx150 xm150 0 0
Gx150_1 x150 0 u1 0 1.81378592676718e-06
Rx151 x151 0 1
Fxc151_152 x151 0 Vx152 755.243881753823
Cx151 x151 xm151 4.12031373830175e-14
Vx151 xm151 0 0
Gx151_1 x151 0 u1 0 -3.36445271183827e-07
Rx152 x152 0 1
Fxc152_151 x152 0 Vx151 -300.360256673079
Cx152 x152 xm152 4.12031373830175e-14
Vx152 xm152 0 0
Gx152_1 x152 0 u1 0 0.000101054788009218
Rx153 x153 0 1
Fxc153_154 x153 0 Vx154 2072.1952183899
Cx153 x153 xm153 1.43266280058829e-14
Vx153 xm153 0 0
Gx153_1 x153 0 u1 0 -9.98194844813138e-09
Rx154 x154 0 1
Fxc154_153 x154 0 Vx153 -900.3118843563
Cx154 x154 xm154 1.43266280058829e-14
Vx154 xm154 0 0
Gx154_1 x154 0 u1 0 8.98686681688461e-06
Rx155 x155 0 1
Fxc155_156 x155 0 Vx156 358.087520404934
Cx155 x155 xm155 9.37589835741656e-14
Vx155 xm155 0 0
Gx155_1 x155 0 u1 0 -2.92937751883025e-06
Rx156 x156 0 1
Fxc156_155 x156 0 Vx155 -123.239388501282
Cx156 x156 xm156 9.37589835741656e-14
Vx156 xm156 0 0
Gx156_1 x156 0 u1 0 0.000361014694110043
Rx157 x157 0 1
Fxc157_158 x157 0 Vx158 548.100843242006
Cx157 x157 xm157 2.94431934184726e-15
Vx157 xm157 0 0
Gx157_1 x157 0 u1 0 -4.42823423287936e-11
Rx158 x158 0 1
Fxc158_157 x158 0 Vx157 -82185.5234858855
Cx158 x158 xm158 2.94431934184726e-15
Vx158 xm158 0 0
Gx158_1 x158 0 u1 0 3.63936748547309e-06
Rx159 x159 0 1
Fxc159_160 x159 0 Vx160 790212.37398732
Cx159 x159 xm159 1.38008738267159e-16
Vx159 xm159 0 0
Gx159_1 x159 0 u1 0 -2.79862793496414e-12
Rx160 x160 0 1
Fxc160_159 x160 0 Vx159 -26176.8898998116
Cx160 x160 xm160 1.38008738267159e-16
Vx160 xm160 0 0
Gx160_1 x160 0 u1 0 7.32593753240934e-08
Rx161 x161 0 1
Fxc161_162 x161 0 Vx162 143.767839089496
Cx161 x161 xm161 3.31616743972311e-14
Vx161 xm161 0 0
Gx161_1 x161 0 u1 0 -4.95582337534821e-08
Rx162 x162 0 1
Fxc162_161 x162 0 Vx161 -2445.85926995736
Cx162 x162 xm162 3.31616743972311e-14
Vx162 xm162 0 0
Gx162_1 x162 0 u1 0 0.000121212465428668
Rx163 x163 0 1
Fxc163_164 x163 0 Vx164 32.1947548695074
Cx163 x163 xm163 6.8171023360865e-13
Vx163 xm163 0 0
Gx163_1 x163 0 u1 0 -0.00425318185303686
Rx164 x164 0 1
Fxc164_163 x164 0 Vx163 -28.9379488109184
Cx164 x164 xm164 6.8171023360865e-13
Vx164 xm164 0 0
Gx164_1 x164 0 u1 0 0.123078358746708
Rx165 x165 0 1
Fxc165_166 x165 0 Vx166 10560.8526810331
Cx165 x165 xm165 1.6412792293327e-15
Vx165 xm165 0 0
Gx165_1 x165 0 u1 0 -2.32902315011842e-10
Rx166 x166 0 1
Fxc166_165 x166 0 Vx165 -14286.9129172589
Cx166 x166 xm166 1.6412792293327e-15
Vx166 xm166 0 0
Gx166_1 x166 0 u1 0 3.32745509280219e-06
Rx167 x167 0 1
Fxc167_168 x167 0 Vx168 68.448808395086
Cx167 x167 xm167 2.0277279276718e-14
Vx167 xm167 0 0
Gx167_1 x167 0 u1 0 -1.21053960220682e-09
Rx168 x168 0 1
Fxc168_167 x168 0 Vx167 -15513.1812004414
Cx168 x168 xm168 2.0277279276718e-14
Vx168 xm168 0 0
Gx168_1 x168 0 u1 0 1.87793201993446e-05
Rx169 x169 0 1
Fxc169_170 x169 0 Vx170 1487.45510739481
Cx169 x169 xm169 9.54778893264496e-15
Vx169 xm169 0 0
Gx169_1 x169 0 u1 0 -1.50371032679042e-09
Rx170 x170 0 1
Fxc170_169 x170 0 Vx169 -3012.21772107701
Cx170 x170 xm170 9.54778893264496e-15
Vx170 xm170 0 0
Gx170_1 x170 0 u1 0 4.5295028937246e-06
Rx171 x171 0 1
Fxc171_172 x171 0 Vx172 2121.83105981255
Cx171 x171 xm171 1.33797401275805e-14
Vx171 xm171 0 0
Gx171_1 x171 0 u1 0 -4.60700732431939e-09
Rx172 x172 0 1
Fxc172_171 x172 0 Vx171 -1085.31420689364
Cx172 x172 xm172 1.33797401275805e-14
Vx172 xm172 0 0
Gx172_1 x172 0 u1 0 5.00005050034689e-06
Rx173 x173 0 1
Fxc173_174 x173 0 Vx174 67595.9477186301
Cx173 x173 xm173 8.17600979330828e-15
Vx173 xm173 0 0
Gx173_1 x173 0 u1 0 -1.74203636305824e-09
Rx174 x174 0 1
Fxc174_173 x174 0 Vx173 -92.636632352269
Cx174 x174 xm174 8.17600979330828e-15
Vx174 xm174 0 0
Gx174_1 x174 0 u1 0 1.6137638210891e-07
Rx175 x175 0 1
Fxc175_176 x175 0 Vx176 1294.86265829018
Cx175 x175 xm175 1.96425850879399e-14
Vx175 xm175 0 0
Gx175_1 x175 0 u1 0 -1.12401587857913e-08
Rx176 x176 0 1
Fxc176_175 x176 0 Vx175 -862.960806550733
Cx176 x176 xm176 1.96425850879399e-14
Vx176 xm176 0 0
Gx176_1 x176 0 u1 0 9.69981649154475e-06
Rx177 x177 0 1
Fxc177_178 x177 0 Vx178 665.831950219072
Cx177 x177 xm177 1.88286053329382e-14
Vx177 xm177 0 0
Gx177_1 x177 0 u1 0 -8.58590225617211e-09
Rx178 x178 0 1
Fxc178_177 x178 0 Vx177 -1842.34892403804
Cx178 x178 xm178 1.88286053329382e-14
Vx178 xm178 0 0
Gx178_1 x178 0 u1 0 1.58182277835544e-05
Rx179 x179 0 1
Fxc179_180 x179 0 Vx180 2107.82872048532
Cx179 x179 xm179 1.88018559993273e-14
Vx179 xm179 0 0
Gx179_1 x179 0 u1 0 -1.3085235693506e-08
Rx180 x180 0 1
Fxc180_179 x180 0 Vx179 -573.89097712545
Cx180 x180 xm180 1.88018559993273e-14
Vx180 xm180 0 0
Gx180_1 x180 0 u1 0 7.509498698063e-06
Rx181 x181 0 1
Fxc181_182 x181 0 Vx182 145368.494187308
Cx181 x181 xm181 1.24637336182943e-15
Vx181 xm181 0 0
Gx181_1 x181 0 u1 0 -1.53914135759411e-10
Rx182 x182 0 1
Fxc182_181 x182 0 Vx181 -1844.10849027669
Cx182 x182 xm182 1.24637336182943e-15
Vx182 xm182 0 0
Gx182_1 x182 0 u1 0 2.83834364527529e-07
Rx183 x183 0 1
Fxc183_184 x183 0 Vx184 1093.45177134477
Cx183 x183 xm183 9.701039005748e-15
Vx183 xm183 0 0
Gx183_1 x183 0 u1 0 -1.65742015547723e-09
Rx184 x184 0 1
Fxc184_183 x184 0 Vx183 -4102.13224941861
Cx184 x184 xm184 9.701039005748e-15
Vx184 xm184 0 0
Gx184_1 x184 0 u1 0 6.79895667061955e-06
Rx185 x185 0 1
Fxc185_186 x185 0 Vx186 523.771889282841
Cx185 x185 xm185 2.77515669599418e-14
Vx185 xm185 0 0
Gx185_1 x185 0 u1 0 -2.22678753339474e-08
Rx186 x186 0 1
Fxc186_185 x186 0 Vx185 -1052.54221731094
Cx186 x186 xm186 2.77515669599418e-14
Vx186 xm186 0 0
Gx186_1 x186 0 u1 0 2.34378788787966e-05
Rx187 x187 0 1
Fxc187_188 x187 0 Vx188 58.1057285274661
Cx187 x187 xm187 1.90385021922328e-12
Vx187 xm187 0 0
Gx187_1 x187 0 u1 0 -0.334532302795897
Rx188 x188 0 1
Fxc188_187 x188 0 Vx187 -2.25235219973742
Cx188 x188 xm188 1.90385021922328e-12
Vx188 xm188 0 0
Gx188_1 x188 0 u1 0 0.753484568085563
Rx189 x189 0 1
Fxc189_190 x189 0 Vx190 219.689439110443
Cx189 x189 xm189 4.13080608699608e-13
Vx189 xm189 0 0
Gx189_1 x189 0 u1 0 -0.000913721674204237
Rx190 x190 0 1
Fxc190_189 x190 0 Vx189 -12.557817545699
Cx190 x190 xm190 4.13080608699608e-13
Vx190 xm190 0 0
Gx190_1 x190 0 u1 0 0.0114743500722075
Rx191 x191 0 1
Fxc191_192 x191 0 Vx192 17.1225668717222
Cx191 x191 xm191 3.88335929258945e-13
Vx191 xm191 0 0
Gx191_1 x191 0 u1 0 -0.000489166922433175
Rx192 x192 0 1
Fxc192_191 x192 0 Vx191 -177.554997252642
Cx192 x192 xm192 3.88335929258945e-13
Vx192 xm192 0 0
Gx192_1 x192 0 u1 0 0.0868540315687058
Rx193 x193 0 1
Fxc193_194 x193 0 Vx194 130.665838089954
Cx193 x193 xm193 2.37282917151686e-13
Vx193 xm193 0 0
Gx193_1 x193 0 u1 0 -0.000129064393457941
Rx194 x194 0 1
Fxc194_193 x194 0 Vx193 -61.8972239115515
Cx194 x194 xm194 2.37282917151686e-13
Vx194 xm194 0 0
Gx194_1 x194 0 u1 0 0.00798872766087474
Rx195 x195 0 1
Fxc195_196 x195 0 Vx196 312.778730468328
Cx195 x195 xm195 1.91607970073068e-14
Vx195 xm195 0 0
Gx195_1 x195 0 u1 0 -3.36657106871807e-09
Rx196 x196 0 1
Fxc196_195 x196 0 Vx195 -3862.43333752286
Cx196 x196 xm196 1.91607970073068e-14
Vx196 xm196 0 0
Gx196_1 x196 0 u1 0 1.30031563289567e-05
Rx197 x197 0 1
Fxc197_198 x197 0 Vx198 5980.89782530992
Cx197 x197 xm197 2.33334731840831e-14
Vx197 xm197 0 0
Gx197_1 x197 0 u1 0 -2.61960376680653e-08
Rx198 x198 0 1
Fxc198_197 x198 0 Vx197 -143.386988081432
Cx198 x198 xm198 2.33334731840831e-14
Vx198 xm198 0 0
Gx198_1 x198 0 u1 0 3.75617094089162e-06
Rx199 x199 0 1
Fxc199_200 x199 0 Vx200 17303.952214653
Cx199 x199 xm199 2.2448315996525e-14
Vx199 xm199 0 0
Gx199_1 x199 0 u1 0 -2.61530019384294e-08
Rx200 x200 0 1
Fxc200_199 x200 0 Vx199 -53.2750828597523
Cx200 x200 xm200 2.2448315996525e-14
Vx200 xm200 0 0
Gx200_1 x200 0 u1 0 1.39330334530109e-06
Rx201 x201 0 1
Fxc201_202 x201 0 Vx202 651.819322179663
Cx201 x201 xm201 5.50128571655933e-15
Vx201 xm201 0 0
Gx201_1 x201 0 u1 0 -1.2592688608217e-10
Rx202 x202 0 1
Fxc202_201 x202 0 Vx201 -23353.9097719269
Cx202 x202 xm202 5.50128571655933e-15
Vx202 xm202 0 0
Gx202_1 x202 0 u1 0 2.9408851354227e-06
Rx203 x203 0 1
Fxc203_204 x203 0 Vx204 442.050502332637
Cx203 x203 xm203 5.82585824065102e-14
Vx203 xm203 0 0
Gx203_1 x203 0 u1 0 -2.92422788971848e-07
Rx204 x204 0 1
Fxc204_203 x204 0 Vx203 -301.790448356168
Cx204 x204 xm204 5.82585824065102e-14
Vx204 xm204 0 0
Gx204_1 x204 0 u1 0 8.82504045933753e-05
Rx205 x205 0 1
Fxc205_206 x205 0 Vx206 2998.89025351833
Cx205 x205 xm205 4.64126067377759e-16
Vx205 xm205 0 0
Gx205_1 x205 0 u1 0 -2.86192572243224e-12
Rx206 x206 0 1
Fxc206_205 x206 0 Vx205 -699177.783986947
Cx206 x206 xm206 4.64126067377759e-16
Vx206 xm206 0 0
Gx206_1 x206 0 u1 0 2.00099488454542e-06
Rx207 x207 0 1