* Equivalent circuit model for TCM1-43X+_1.ckt
.SUBCKT TCM1-43X+_1 po1 po2 po3
Vsp1 po1 p1 0
Vsr1 p1 pr1 0
Rp1 pr1 0 50
Ru1 u1 0 50
Fr1 u1 0 Vsr1 -1
Fu1 u1 0 Vsp1 -1
Ry1 y1 0 1
Gy1 p1 0 y1 0 -0.02
Vsp2 po2 p2 0
Vsr2 p2 pr2 0
Rp2 pr2 0 50
Ru2 u2 0 50
Fr2 u2 0 Vsr2 -1
Fu2 u2 0 Vsp2 -1
Ry2 y2 0 1
Gy2 p2 0 y2 0 -0.02
Vsp3 po3 p3 0
Vsr3 p3 pr3 0
Rp3 pr3 0 50
Ru3 u3 0 50
Fr3 u3 0 Vsr3 -1
Fu3 u3 0 Vsp3 -1
Ry3 y3 0 1
Gy3 p3 0 y3 0 -0.02
Rx1 x1 0 1
Fxc1_2 x1 0 Vx2 4.71114172735079
Cx1 x1 xm1 4.30686999129145e-12
Vx1 xm1 0 0
Gx1_1 x1 0 u1 0 -0.649352987731244
Rx2 x2 0 1
Fxc2_1 x2 0 Vx1 -3.57114254592561
Cx2 x2 xm2 4.30686999129145e-12
Vx2 xm2 0 0
Gx2_1 x2 0 u1 0 2.31893208181095
Rx3 x3 0 1
Fxc3_4 x3 0 Vx4 0.603618248236217
Cx3 x3 xm3 8.05342537957096e-12
Vx3 xm3 0 0
Gx3_1 x3 0 u1 0 -0.315251175297791
Rx4 x4 0 1
Fxc4_3 x4 0 Vx3 -14.2508781347496
Cx4 x4 xm4 8.05342537957096e-12
Vx4 xm4 0 0
Gx4_1 x4 0 u1 0 4.49260608100539
Rx5 x5 0 1
Fxc5_6 x5 0 Vx6 67.5629168242984
Cx5 x5 xm5 2.88356300968449e-14
Vx5 xm5 0 0
Gx5_1 x5 0 u1 0 -6.73088179146205e-09
Rx6 x6 0 1
Fxc6_5 x6 0 Vx5 -9473.92533813877
Cx6 x6 xm6 2.88356300968449e-14
Vx6 xm6 0 0
Gx6_1 x6 0 u1 0 6.37678715521492e-05
Rx7 x7 0 1
Fxc7_8 x7 0 Vx8 22755.1998063158
Cx7 x7 xm7 3.27807622205493e-15
Vx7 xm7 0 0
Gx7_1 x7 0 u1 0 -9.07782014041513e-10
Rx8 x8 0 1
Fxc8_7 x8 0 Vx7 -2258.54379708303
Cx8 x8 xm8 3.27807622205493e-15
Vx8 xm8 0 0
Gx8_1 x8 0 u1 0 2.050265436917e-06
Rx9 x9 0 1
Fxc9_10 x9 0 Vx10 315.517249903735
Cx9 x9 xm9 8.61037113698984e-14
Vx9 xm9 0 0
Gx9_1 x9 0 u1 0 -4.82889560346781e-07
Rx10 x10 0 1
Fxc10_9 x10 0 Vx9 -241.372240484605
Cx10 x10 xm10 8.61037113698984e-14
Vx10 xm10 0 0
Gx10_1 x10 0 u1 0 0.000116556135087528
Rx11 x11 0 1
Fxc11_12 x11 0 Vx12 3473.74789179793
Cx11 x11 xm11 7.36385701297364e-14
Vx11 xm11 0 0
Gx11_1 x11 0 u1 0 -4.30351942173622e-07
Rx12 x12 0 1
Fxc12_11 x12 0 Vx11 -30.4815155248068
Cx12 x12 xm12 7.36385701297364e-14
Vx12 xm12 0 0
Gx12_1 x12 0 u1 0 1.3117779406496e-05
Rx13 x13 0 1
Fxc13_14 x13 0 Vx14 327.588383248525
Cx13 x13 xm13 2.83512527353486e-14
Vx13 xm13 0 0
Gx13_1 x13 0 u1 0 -1.42533797684621e-08
Rx14 x14 0 1
Fxc14_13 x14 0 Vx13 -2258.32542799717
Cx14 x14 xm14 2.83512527353486e-14
Vx14 xm14 0 0
Gx14_1 x14 0 u1 0 3.21887699660183e-05
Rx15 x15 0 1
Fxc15_16 x15 0 Vx16 5.9768606819774
Cx15 x15 xm15 2.47015112633796e-12
Vx15 xm15 0 0
Gx15_1 x15 0 u1 0 -0.00377920994631216
Rx16 x16 0 1
Fxc16_15 x16 0 Vx15 -18.8534512547498
Cx16 x16 xm16 2.47015112633796e-12
Vx16 xm16 0 0
Gx16_1 x16 0 u1 0 0.071251150504262
Rx17 x17 0 1
Fxc17_18 x17 0 Vx18 444.608688899593
Cx17 x17 xm17 6.21082676967847e-14
Vx17 xm17 0 0
Gx17_1 x17 0 u1 0 -1.46135368483712e-07
Rx18 x18 0 1
Fxc18_17 x18 0 Vx17 -359.77972226872
Cx18 x18 xm18 6.21082676967847e-14
Vx18 xm18 0 0
Gx18_1 x18 0 u1 0 5.25765422867068e-05
Rx19 x19 0 1
Fxc19_20 x19 0 Vx20 993.909133806365
Cx19 x19 xm19 6.88618151548846e-14
Vx19 xm19 0 0
Gx19_1 x19 0 u1 0 -2.14454662357434e-07
Rx20 x20 0 1
Fxc20_19 x20 0 Vx19 -135.937236382723
Cx20 x20 xm20 6.88618151548846e-14
Vx20 xm20 0 0
Gx20_1 x20 0 u1 0 2.91523741302595e-05
Rx21 x21 0 1
Fxc21_22 x21 0 Vx22 4276.53551203196
Cx21 x21 xm21 5.46774161318971e-15
Vx21 xm21 0 0
Gx21_1 x21 0 u1 0 -1.47281605630557e-09
Rx22 x22 0 1
Fxc22_21 x22 0 Vx21 -5117.66395969694
Cx22 x22 xm22 5.46774161318971e-15
Vx22 xm22 0 0
Gx22_1 x22 0 u1 0 7.53737765061797e-06
Rx23 x23 0 1
Fxc23_24 x23 0 Vx24 74.6693111994835
Cx23 x23 xm23 1.19014549350492e-13
Vx23 xm23 0 0
Gx23_1 x23 0 u1 0 -2.6261062088855e-07
Rx24 x24 0 1
Fxc24_23 x24 0 Vx23 -634.363023123572
Cx24 x24 xm24 1.19014549350492e-13
Vx24 xm24 0 0
Gx24_1 x24 0 u1 0 0.000166590467371219
Rx25 x25 0 1
Fxc25_26 x25 0 Vx26 25.9333848158752
Cx25 x25 xm25 3.39580797038266e-13
Vx25 xm25 0 0
Gx25_1 x25 0 u1 0 -5.11522220195801e-06
Rx26 x26 0 1
Fxc26_25 x26 0 Vx25 -233.161554780615
Cx26 x26 xm26 3.39580797038266e-13
Vx26 xm26 0 0
Gx26_1 x26 0 u1 0 0.00119267316165685
Rx27 x27 0 1
Fxc27_28 x27 0 Vx28 1425.56447902026
Cx27 x27 xm27 1.0660761974355e-13
Vx27 xm27 0 0
Gx27_1 x27 0 u1 0 -6.51074112680583e-07
Rx28 x28 0 1
Fxc28_27 x28 0 Vx27 -43.5483643821817
Cx28 x28 xm28 1.0660761974355e-13
Vx28 xm28 0 0
Gx28_1 x28 0 u1 0 2.83532126988196e-05
Rx29 x29 0 1
Fxc29_30 x29 0 Vx30 1214.65016289427
Cx29 x29 xm29 6.29358278007233e-14
Vx29 xm29 0 0
Gx29_1 x29 0 u1 0 -1.15888576439023e-07
Rx30 x30 0 1
Fxc30_29 x30 0 Vx29 -153.769733129738
Cx30 x30 xm30 6.29358278007233e-14
Vx30 xm30 0 0
Gx30_1 x30 0 u1 0 1.78201554718137e-05
Rx31 x31 0 1
Fxc31_32 x31 0 Vx32 98.3547331226706
Cx31 x31 xm31 6.18092938643569e-14
Vx31 xm31 0 0
Gx31_1 x31 0 u1 0 -2.73757073847904e-08
Rx32 x32 0 1
Fxc32_31 x32 0 Vx31 -2055.79491547441
Cx32 x32 xm32 6.18092938643569e-14
Vx32 xm32 0 0
Gx32_1 x32 0 u1 0 5.62788400491673e-05
Rx33 x33 0 1
Fxc33_34 x33 0 Vx34 1675.35839816235
Cx33 x33 xm33 5.92714932806977e-14
Vx33 xm33 0 0
Gx33_1 x33 0 u1 0 -1.13622330407649e-07
Rx34 x34 0 1
Fxc34_33 x34 0 Vx33 -137.031095613401
Cx34 x34 xm34 5.92714932806977e-14
Vx34 xm34 0 0
Gx34_1 x34 0 u1 0 1.5569792421908e-05
Rx35 x35 0 1
Fxc35_36 x35 0 Vx36 33.0151596746313
Cx35 x35 xm35 4.85449289847599e-13
Vx35 xm35 0 0
Gx35_1 x35 0 u1 0 -1.17047436733959e-05
Rx36 x36 0 1
Fxc36_35 x36 0 Vx35 -106.337801837521
Cx36 x36 xm36 4.85449289847599e-13
Vx36 xm36 0 0
Gx36_1 x36 0 u1 0 0.00124465671330055
Rx37 x37 0 1
Fxc37_38 x37 0 Vx38 69.4562536856763
Cx37 x37 xm37 7.07373676456137e-14
Vx37 xm37 0 0
Gx37_1 x37 0 u1 0 -2.93634928477335e-08
Rx38 x38 0 1
Fxc38_37 x38 0 Vx37 -2374.10577807345
Cx38 x38 xm38 7.07373676456137e-14
Vx38 xm38 0 0
Gx38_1 x38 0 u1 0 6.97120380342226e-05
Rx39 x39 0 1
Fxc39_40 x39 0 Vx40 155.974759468003
Cx39 x39 xm39 4.92699889036898e-14
Vx39 xm39 0 0
Gx39_1 x39 0 u1 0 -1.67256827843119e-08
Rx40 x40 0 1
Fxc40_39 x40 0 Vx39 -2283.38458348663
Cx40 x40 xm40 4.92699889036898e-14
Vx40 xm40 0 0
Gx40_1 x40 0 u1 0 3.81911662179854e-05
Rx41 x41 0 1
Fxc41_42 x41 0 Vx42 1066.65282285635
Cx41 x41 xm41 1.55367016383078e-13
Vx41 xm41 0 0
Gx41_1 x41 0 u1 0 -5.78013008141146e-07
Rx42 x42 0 1
Fxc42_41 x42 0 Vx41 -34.7391223082737
Cx42 x42 xm42 1.55367016383078e-13
Vx42 xm42 0 0
Gx42_1 x42 0 u1 0 2.00796645855884e-05
Rx43 x43 0 1
Fxc43_44 x43 0 Vx44 69.4666860648144
Cx43 x43 xm43 8.2745464547176e-14
Vx43 xm43 0 0
Gx43_1 x43 0 u1 0 -2.85194132454095e-08
Rx44 x44 0 1
Fxc44_43 x44 0 Vx43 -1960.84772036475
Cx44 x44 xm44 8.2745464547176e-14
Vx44 xm44 0 0
Gx44_1 x44 0 u1 0 5.59222264484014e-05
Rx45 x45 0 1
Fxc45_46 x45 0 Vx46 12.6807677856508
Cx45 x45 xm45 1.78520263333676e-13
Vx45 xm45 0 0
Gx45_1 x45 0 u1 0 -9.19159698150352e-08
Rx46 x46 0 1
Fxc46_45 x46 0 Vx45 -2377.51358939125
Cx46 x46 xm46 1.78520263333676e-13
Vx46 xm46 0 0
Gx46_1 x46 0 u1 0 0.000218531467317322
Rx47 x47 0 1
Fxc47_48 x47 0 Vx48 536.436806250019
Cx47 x47 xm47 1.06144284233908e-13
Vx47 xm47 0 0
Gx47_1 x47 0 u1 0 -2.27376774049975e-07
Rx48 x48 0 1
Fxc48_47 x48 0 Vx47 -161.67839283025
Cx48 x48 xm48 1.06144284233908e-13
Vx48 xm48 0 0
Gx48_1 x48 0 u1 0 3.67619113953269e-05
Rx49 x49 0 1
Fxc49_50 x49 0 Vx50 0.356377512357627
Cx49 x49 xm49 4.03773986408564e-11
Vx49 xm49 0 0
Gx49_1 x49 0 u1 0 -28.8539457384735
Rx50 x50 0 1
Fxc50_49 x50 0 Vx49 -0.563185351774341
Cx50 x50 xm50 4.03773986408564e-11
Vx50 xm50 0 0
Gx50_1 x50 0 u1 0 16.2501195807999
Rx51 x51 0 1
Fxc51_52 x51 0 Vx52 536.461912694153
Cx51 x51 xm51 4.28734109622567e-14
Vx51 xm51 0 0
Gx51_1 x51 0 u1 0 -2.24773653895234e-08
Rx52 x52 0 1
Fxc52_51 x52 0 Vx51 -1026.98008606772
Cx52 x52 xm52 4.28734109622567e-14
Vx52 xm52 0 0
Gx52_1 x52 0 u1 0 2.30838066423082e-05
Rx53 x53 0 1
Fxc53_54 x53 0 Vx54 1047.89565471436
Cx53 x53 xm53 3.84734228551787e-14
Vx53 xm53 0 0
Gx53_1 x53 0 u1 0 -1.85888872893405e-08
Rx54 x54 0 1
Fxc54_53 x54 0 Vx53 -681.474901462236
Cx54 x54 xm54 3.84734228551787e-14
Vx54 xm54 0 0
Gx54_1 x54 0 u1 0 1.2667860133796e-05
Rx55 x55 0 1
Fxc55_56 x55 0 Vx56 12.0826142087576
Cx55 x55 xm55 2.41483364210631e-12
Vx55 xm55 0 0
Gx55_1 x55 0 u1 0 -0.00100242657751205
Rx56 x56 0 1
Fxc56_55 x56 0 Vx55 -15.9638530935828
Cx56 x56 xm56 2.41483364210631e-12
Vx56 xm56 0 0
Gx56_1 x56 0 u1 0 0.0160025906205054
Rx57 x57 0 1
Fxc57_58 x57 0 Vx58 15.535530622417
Cx57 x57 xm57 3.4976618046498e-13
Vx57 xm57 0 0
Gx57_1 x57 0 u1 0 -5.18551892121921e-07
Rx58 x58 0 1
Fxc58_57 x58 0 Vx57 -578.273951913939
Cx58 x58 xm58 3.4976618046498e-13
Vx58 xm58 0 0
Gx58_1 x58 0 u1 0 0.000299865051929794
Rx59 x59 0 1
Fxc59_60 x59 0 Vx60 591.420627989866
Cx59 x59 xm59 1.82634891235488e-14
Vx59 xm59 0 0
Gx59_1 x59 0 u1 0 -1.12494871636132e-09
Rx60 x60 0 1
Fxc60_59 x60 0 Vx59 -5706.09619031033
Cx60 x60 xm60 1.82634891235488e-14
Vx60 xm60 0 0
Gx60_1 x60 0 u1 0 6.41906558472383e-06
Rx61 x61 0 1
Fxc61_62 x61 0 Vx62 1274.12255936988
Cx61 x61 xm61 8.73129447755975e-14
Vx61 xm61 0 0
Gx61_1 x61 0 u1 0 -8.68114207074114e-08
Rx62 x62 0 1
Fxc62_61 x62 0 Vx61 -120.877542143541
Cx62 x62 xm62 8.73129447755975e-14
Vx62 xm62 0 0
Gx62_1 x62 0 u1 0 1.04935511651008e-05
Rx63 x63 0 1
Fxc63_64 x63 0 Vx64 6.22022062773607
Cx63 x63 xm63 1.19432876562705e-11
Vx63 xm63 0 0
Gx63_1 x63 0 u1 0 -0.343913259888117
Rx64 x64 0 1
Fxc64_63 x64 0 Vx63 -1.75579368499634
Cx64 x64 xm64 1.19432876562705e-11
Vx64 xm64 0 0
Gx64_1 x64 0 u1 0 0.603840729898063
Rx65 x65 0 1
Fxc65_66 x65 0 Vx66 39.6687367560648
Cx65 x65 xm65 2.49726015690021e-13
Vx65 xm65 0 0
Gx65_1 x65 0 u1 0 -3.1648832956867e-07
Rx66 x66 0 1
Fxc66_65 x66 0 Vx65 -495.438702795361
Cx66 x66 xm66 2.49726015690021e-13
Vx66 xm66 0 0
Gx66_1 x66 0 u1 0 0.000156800567451373
Rx67 x67 0 1
Fxc67_68 x67 0 Vx68 1187.5088343608
Cx67 x67 xm67 2.53897718170844e-14
Vx67 xm67 0 0
Gx67_1 x67 0 u1 0 -5.93735470051078e-09
Rx68 x68 0 1
Fxc68_67 x68 0 Vx67 -1635.18684782533
Cx68 x68 xm68 2.53897718170844e-14
Vx68 xm68 0 0
Gx68_1 x68 0 u1 0 9.70868431714915e-06
Rx69 x69 0 1
Fxc69_70 x69 0 Vx70 1.24711865767171
Cx69 x69 xm69 2.12240440031949e-11
Vx69 xm69 0 0
Gx69_1 x69 0 u1 0 -1.79724586738083
Rx70 x70 0 1
Fxc70_69 x70 0 Vx69 -2.86690954620997
Cx70 x70 xm70 2.12240440031949e-11
Vx70 xm70 0 0
Gx70_1 x70 0 u1 0 5.15254133408052
Rx71 x71 0 1
Fxc71_72 x71 0 Vx72 1232.80977536121
Cx71 x71 xm71 1.58125194797678e-13
Vx71 xm71 0 0
Gx71_1 x71 0 u1 0 -3.30548000972376e-07
Rx72 x72 0 1
Fxc72_71 x72 0 Vx71 -42.310403406277
Cx72 x72 xm72 1.58125194797678e-13
Vx72 xm72 0 0
Gx72_1 x72 0 u1 0 1.39856192662797e-05
Rx73 x73 0 1
Fxc73_74 x73 0 Vx74 260.425636576108
Cx73 x73 xm73 2.51123986719261e-13
Vx73 xm73 0 0
Gx73_1 x73 0 u1 0 -1.14632119415174e-06
Rx74 x74 0 1
Fxc74_73 x74 0 Vx73 -83.0062268845765
Cx74 x74 xm74 2.51123986719261e-13
Vx74 xm74 0 0
Gx74_1 x74 0 u1 0 9.51517971243576e-05
Rx75 x75 0 1
Fxc75_76 x75 0 Vx76 1170.00761001182
Cx75 x75 xm75 5.50290062427746e-14
Vx75 xm75 0 0
Gx75_1 x75 0 u1 0 -2.65059024886127e-08
Rx76 x76 0 1
Fxc76_75 x76 0 Vx75 -395.037632798858
Cx76 x76 xm76 5.50290062427746e-14
Vx76 xm76 0 0
Gx76_1 x76 0 u1 0 1.04708289742989e-05
Rx77 x77 0 1
Fxc77_78 x77 0 Vx78 347.701210991986
Cx77 x77 xm77 1.73036537262631e-13
Vx77 xm77 0 0
Gx77_1 x77 0 u1 0 -4.53510705761923e-07
Rx78 x78 0 1
Fxc78_77 x78 0 Vx77 -139.994659286797
Cx78 x78 xm78 1.73036537262631e-13
Vx78 xm78 0 0
Gx78_1 x78 0 u1 0 6.34890767360553e-05
Rx79 x79 0 1
Fxc79_80 x79 0 Vx80 40.1836295673689
Cx79 x79 xm79 1.04005943428604e-12
Vx79 xm79 0 0
Gx79_1 x79 0 u1 0 -4.55066015076472e-05
Rx80 x80 0 1
Fxc80_79 x80 0 Vx79 -34.3314249452786
Cx80 x80 xm80 1.04005943428604e-12
Vx80 xm80 0 0
Gx80_1 x80 0 u1 0 0.00156230647417449
Rx81 x81 0 1
Fxc81_82 x81 0 Vx82 44.3006273057236
Cx81 x81 xm81 1.69597975933452e-13
Vx81 xm81 0 0
Gx81_1 x81 0 u1 0 -7.50142769424825e-08
Rx82 x82 0 1
Fxc82_81 x82 0 Vx81 -1197.04118441021
Cx82 x82 xm82 1.69597975933451e-13
Vx82 xm82 0 0
Gx82_1 x82 0 u1 0 8.97951789189048e-05
Rx83 x83 0 1
Fxc83_84 x83 0 Vx84 1341.34590783269
Cx83 x83 xm83 1.6574520023931e-13
Vx83 xm83 0 0
Gx83_1 x83 0 u1 0 -3.3176229131289e-07
Rx84 x84 0 1
Fxc84_83 x84 0 Vx83 -43.2176385575793
Cx84 x84 xm84 1.6574520023931e-13
Vx84 xm84 0 0
Gx84_1 x84 0 u1 0 1.43379827929948e-05
Rx85 x85 0 1
Fxc85_86 x85 0 Vx86 121.87279599379
Cx85 x85 xm85 4.17930149743441e-14
Vx85 xm85 0 0
Gx85_1 x85 0 u1 0 -1.47312415497432e-09
Rx86 x86 0 1
Fxc86_85 x86 0 Vx85 -7847.20405058023
Cx86 x86 xm86 4.17930149743441e-14
Vx86 xm86 0 0
Gx86_1 x86 0 u1 0 1.15599058359221e-05
Rx87 x87 0 1
Fxc87_88 x87 0 Vx88 353.375902372115
Cx87 x87 xm87 9.47540753730688e-14
Vx87 xm87 0 0
Gx87_1 x87 0 u1 0 -5.03336697572282e-08
Rx88 x88 0 1
Fxc88_87 x88 0 Vx87 -542.31590753162
Cx88 x88 xm88 9.47540753730688e-14
Vx88 xm88 0 0
Gx88_1 x88 0 u1 0 2.72967497937881e-05
Rx89 x89 0 1
Fxc89_90 x89 0 Vx90 134.687710616814
Cx89 x89 xm89 3.39327012867075e-13
Vx89 xm89 0 0
Gx89_1 x89 0 u1 0 -8.69256001869561e-07
Rx90 x90 0 1
Fxc90_89 x90 0 Vx89 -114.855215852665
Cx90 x90 xm90 3.39327012867075e-13
Vx90 xm90 0 0
Gx90_1 x90 0 u1 0 9.98385857259532e-05
Rx91 x91 0 1
Fxc91_92 x91 0 Vx92 1394.96654096327
Cx91 x91 xm91 2.21690564685036e-14
Vx91 xm91 0 0
Gx91_1 x91 0 u1 0 -3.97442485099303e-09
Rx92 x92 0 1
Fxc92_91 x92 0 Vx91 -2671.26647259847
Cx92 x92 xm92 2.21690564685036e-14
Vx92 xm92 0 0
Gx92_1 x92 0 u1 0 1.06167478523199e-05
Rx93 x93 0 1
Fxc93_94 x93 0 Vx94 1146.52430229269
Cx93 x93 xm93 1.4311943973241e-13
Vx93 xm93 0 0
Gx93_1 x93 0 u1 0 -1.18741515724191e-07
Rx94 x94 0 1
Fxc94_93 x94 0 Vx93 -82.2503523738923
Cx94 x94 xm94 1.4311943973241e-13
Vx94 xm94 0 0
Gx94_1 x94 0 u1 0 9.76653150972482e-06
Rx95 x95 0 1
Fxc95_96 x95 0 Vx96 152.52342999519
Cx95 x95 xm95 1.49527034425067e-14
Vx95 xm95 0 0
Gx95_1 x95 0 u1 0 -2.75125506761358e-10
Rx96 x96 0 1
Fxc96_95 x96 0 Vx95 -59050.4255701591
Cx96 x96 xm96 1.49527034425067e-14
Vx96 xm96 0 0
Gx96_1 x96 0 u1 0 1.62462782594639e-05
Rx97 x97 0 1
Fxc97_98 x97 0 Vx98 65.1316295382976
Cx97 x97 xm97 1.29249231176747e-13
Vx97 xm97 0 0
Gx97_1 x97 0 u1 0 -1.8773255377285e-08
Rx98 x98 0 1
Fxc98_97 x98 0 Vx97 -1921.27591327259
Cx98 x98 xm98 1.29249231176747e-13
Vx98 xm98 0 0
Gx98_1 x98 0 u1 0 3.6068603370093e-05
Rx99 x99 0 1
Fxc99_100 x99 0 Vx100 1523.11400961381
Cx99 x99 xm99 2.97577142965506e-14
Vx99 xm99 0 0
Gx99_1 x99 0 u1 0 -6.7805459020016e-09
Rx100 x100 0 1
Fxc100_99 x100 0 Vx99 -1608.84998836577
Cx100 x100 xm100 2.97577142965506e-14
Vx100 xm100 0 0
Gx100_1 x100 0 u1 0 1.09088811955488e-05
Rx101 x101 0 1
Fxc101_102 x101 0 Vx102 173.454675830585
Cx101 x101 xm101 3.66480875628994e-13
Vx101 xm101 0 0
Gx101_1 x101 0 u1 0 -6.51466093981107e-07
Rx102 x102 0 1
Fxc102_101 x102 0 Vx101 -96.544306679683
Cx102 x102 xm102 3.66480875628994e-13
Vx102 xm102 0 0
Gx102_1 x102 0 u1 0 6.28953423687272e-05
Rx103 x103 0 1
Fxc103_104 x103 0 Vx104 1109.24735846092
Cx103 x103 xm103 1.55725403798337e-13
Vx103 xm103 0 0
Gx103_1 x103 0 u1 0 -1.24153138361159e-07
Rx104 x104 0 1
Fxc104_103 x104 0 Vx103 -87.1394331375762
Cx104 x104 xm104 1.55725403798337e-13
Vx104 xm104 0 0
Gx104_1 x104 0 u1 0 1.08186340990425e-05
Rx105 x105 0 1
Fxc105_106 x105 0 Vx106 1472.9406610034
Cx105 x105 xm105 2.70690945024366e-14
Vx105 xm105 0 0
Gx105_1 x105 0 u1 0 -4.07705863309248e-09
Rx106 x106 0 1
Fxc106_105 x106 0 Vx105 -2383.14014593404
Cx106 x106 xm106 2.70690945024366e-14
Vx106 xm106 0 0
Gx106_1 x106 0 u1 0 9.71620210584966e-06
Rx107 x107 0 1
Fxc107_108 x107 0 Vx108 4189.51073694025
Cx107 x107 xm107 1.05947857159888e-13
Vx107 xm107 0 0
Gx107_1 x107 0 u1 0 -6.55689986649896e-08
Rx108 x108 0 1
Fxc108_107 x108 0 Vx107 -52.483624398605
Cx108 x108 xm108 1.05947857159888e-13
Vx108 xm108 0 0
Gx108_1 x108 0 u1 0 3.44129869812595e-06
Rx109 x109 0 1
Fxc109_110 x109 0 Vx110 1449.48530620349
Cx109 x109 xm109 8.05411899100067e-14
Vx109 xm109 0 0
Gx109_1 x109 0 u1 0 -3.47738716289156e-08
Rx110 x110 0 1
Fxc110_109 x110 0 Vx109 -292.580822253074
Cx110 x110 xm110 8.05411899100067e-14
Vx110 xm110 0 0
Gx110_1 x110 0 u1 0 1.0174167954111e-05
Rx111 x111 0 1
Fxc111_112 x111 0 Vx112 350.194109912843
Cx111 x111 xm111 2.77463484357731e-13
Vx111 xm111 0 0
Gx111_1 x111 0 u1 0 -2.59376256859559e-07
Rx112 x112 0 1
Fxc112_111 x112 0 Vx111 -105.682742565954
Cx112 x112 xm112 2.77463484357731e-13
Vx112 xm112 0 0
Gx112_1 x112 0 u1 0 2.74115941814094e-05
Rx113 x113 0 1
Cx113 x113 0 1.26327330229509e-10
Gx113_1 x113 0 u1 0 -5.2482619018823
Rx114 x114 0 1
Fxc114_115 x114 0 Vx115 1179.66817957751
Cx114 x114 xm114 1.99280702854811e-13
Vx114 xm114 0 0
Gx114_1 x114 0 u1 0 -2.51065931436558e-07
Rx115 x115 0 1
Fxc115_114 x115 0 Vx114 -63.6651141382228
Cx115 x115 xm115 1.99280702854811e-13
Vx115 xm115 0 0
Gx115_1 x115 0 u1 0 1.59841411811277e-05
Rx116 x116 0 1
Fxc116_117 x116 0 Vx117 816.072477240114
Cx116 x116 xm116 3.34725367390173e-14
Vx116 xm116 0 0
Gx116_1 x116 0 u1 0 -3.36089290178885e-09
Rx117 x117 0 1
Fxc117_116 x117 0 Vx116 -3443.35930131658
Cx117 x117 xm117 3.34725367390174e-14
Vx117 xm117 0 0
Gx117_1 x117 0 u1 0 1.15727618341035e-05
Rx118 x118 0 1
Fxc118_119 x118 0 Vx119 66.2203039474744
Cx118 x118 xm118 1.20981905835219e-12
Vx118 xm118 0 0
Gx118_1 x118 0 u1 0 -1.18221794985669e-05
Rx119 x119 0 1
Fxc119_118 x119 0 Vx118 -33.5655137123057
Cx119 x119 xm119 1.20981905835219e-12
Vx119 xm119 0 0
Gx119_1 x119 0 u1 0 0.000396817528068487
Rx120 x120 0 1
Fxc120_121 x120 0 Vx121 32.8189478591376
Cx120 x120 xm120 2.41747187333388e-13
Vx120 xm120 0 0
Gx120_1 x120 0 u1 0 -4.78840791907876e-08
Rx121 x121 0 1
Fxc121_120 x121 0 Vx120 -1833.79003669021
Cx121 x121 xm121 2.41747187333388e-13
Vx121 xm121 0 0
Gx121_1 x121 0 u1 0 8.78093473361514e-05
Rx122 x122 0 1
Fxc122_123 x122 0 Vx123 87.0483224959785
Cx122 x122 xm122 6.05595987313277e-13
Vx122 xm122 0 0
Gx122_1 x122 0 u1 0 -1.76604882800903e-06
Rx123 x123 0 1
Fxc123_122 x123 0 Vx122 -112.677776245508
Cx123 x123 xm123 6.05595987313277e-13
Vx123 xm123 0 0
Gx123_1 x123 0 u1 0 0.000198994454681044
Rx124 x124 0 1
Fxc124_125 x124 0 Vx125 8.34985941078969
Cx124 x124 xm124 4.27273098109608e-12
Vx124 xm124 0 0
Gx124_1 x124 0 u1 0 -0.000361725499489477
Rx125 x125 0 1
Fxc125_124 x125 0 Vx124 -27.5794889153617
Cx125 x125 xm125 4.27273098109608e-12
Vx125 xm125 0 0
Gx125_1 x125 0 u1 0 0.0099762044035737
Rx126 x126 0 1
Fxc126_127 x126 0 Vx127 1373.73381840876
Cx126 x126 xm126 2.2113064440014e-13
Vx126 xm126 0 0
Gx126_1 x126 0 u1 0 -2.45853519237459e-07
Rx127 x127 0 1
Fxc127_126 x127 0 Vx126 -58.1632040134788
Cx127 x127 xm127 2.2113064440014e-13
Vx127 xm127 0 0
Gx127_1 x127 0 u1 0 1.42996283968401e-05
Rx128 x128 0 1
Fxc128_129 x128 0 Vx129 19.3461561044746
Cx128 x128 xm128 3.84635353963742e-13
Vx128 xm128 0 0
Gx128_1 x128 0 u1 0 -9.28328055530745e-08
Rx129 x129 0 1
Fxc129_128 x129 0 Vx128 -1434.03122010332
Cx129 x129 xm129 3.84635353963742e-13
Vx129 xm129 0 0
Gx129_1 x129 0 u1 0 0.00013312514141289
Rx130 x130 0 1
Fxc130_131 x130 0 Vx131 10.7270261935519
Cx130 x130 xm130 1.31174697600352e-12
Vx130 xm130 0 0
Gx130_1 x130 0 u1 0 -8.3035638841843e-06
Rx131 x131 0 1
Fxc131_130 x131 0 Vx130 -236.31045724118
Cx131 x131 xm131 1.31174697600352e-12
Vx131 xm131 0 0
Gx131_1 x131 0 u1 0 0.00196221897820294
Rx132 x132 0 1
Fxc132_133 x132 0 Vx133 377.402009568768
Cx132 x132 xm132 6.73245820833979e-13
Vx132 xm132 0 0
Gx132_1 x132 0 u1 0 -4.48036811381799e-06
Rx133 x133 0 1
Fxc133_132 x133 0 Vx132 -25.9472222942777
Cx133 x133 xm133 6.73245820833979e-13
Vx133 xm133 0 0
Gx133_1 x133 0 u1 0 0.000116253107409429
Rx134 x134 0 1
Fxc134_135 x134 0 Vx135 232.758352553756
Cx134 x134 xm134 5.84808784752663e-13
Vx134 xm134 0 0
Gx134_1 x134 0 u1 0 -1.29389080399073e-06
Rx135 x135 0 1
Fxc135_134 x135 0 Vx134 -61.4626990398924
Cx135 x135 xm135 5.84808784752663e-13
Vx135 xm135 0 0
Gx135_1 x135 0 u1 0 7.95260210761665e-05
Rx136 x136 0 1
Fxc136_137 x136 0 Vx137 207.141788705059
Cx136 x136 xm136 1.79416446898388e-13
Vx136 xm136 0 0
Gx136_1 x136 0 u1 0 -2.18726982435231e-08
Rx137 x137 0 1
Fxc137_136 x137 0 Vx136 -801.435551699879
Cx137 x137 xm137 1.79416446898388e-13
Vx137 xm137 0 0
Gx137_1 x137 0 u1 0 1.75295579839629e-05
Rx138 x138 0 1
Fxc138_139 x138 0 Vx139 181.127379569173
Cx138 x138 xm138 9.55321996041439e-13
Vx138 xm138 0 0
Gx138_1 x138 0 u1 0 -3.37061150756012e-06
Rx139 x139 0 1
Fxc139_138 x139 0 Vx138 -35.3223174847751
Cx139 x139 xm139 9.55321996041439e-13
Vx139 xm139 0 0
Gx139_1 x139 0 u1 0 0.000119057809787875
Rx140 x140 0 1
Fxc140_141 x140 0 Vx141 23.1933332113227
Cx140 x140 xm140 4.22656817502044e-13
Vx140 xm140 0 0
Gx140_1 x140 0 u1 0 -6.15450144654684e-08
Rx141 x141 0 1
Fxc141_140 x141 0 Vx140 -1459.66127742099
Cx141 x141 xm141 4.22656817502044e-13
Vx141 xm141 0 0
Gx141_1 x141 0 u1 0 8.98348744335592e-05
Rx142 x142 0 1
Fxc142_143 x142 0 Vx143 61.2300859783102
Cx142 x142 xm142 2.32688864615857e-12
Vx142 xm142 0 0
Gx142_1 x142 0 u1 0 -2.29189079276921e-05
Rx143 x143 0 1
Fxc143_142 x143 0 Vx142 -20.005110738955
Cx143 x143 xm143 2.32688864615857e-12
Vx143 xm143 0 0
Gx143_1 x143 0 u1 0 0.000458495291109394
Rx144 x144 0 1
Fxc144_145 x144 0 Vx145 557.560547924165
Cx144 x144 xm144 2.24826805546157e-13
Vx144 xm144 0 0
Gx144_1 x144 0 u1 0 -9.94221123212158e-08
Rx145 x145 0 1
Fxc145_144 x145 0 Vx144 -236.36060215471
Cx145 x145 xm145 2.24826805546157e-13
Vx145 xm145 0 0
Gx145_1 x145 0 u1 0 2.34994703357358e-05
Rx146 x146 0 1
Fxc146_147 x146 0 Vx147 436.944480191724
Cx146 x146 xm146 7.62490228495289e-13
Vx146 xm146 0 0
Gx146_1 x146 0 u1 0 -9.40774372228672e-07
Rx147 x147 0 1
Fxc147_146 x147 0 Vx146 -29.6840505017269
Cx147 x147 xm147 7.62490228495289e-13
Vx147 xm147 0 0
Gx147_1 x147 0 u1 0 2.79259939759663e-05
Rx148 x148 0 1
Fxc148_149 x148 0 Vx149 42.0746481549003
Cx148 x148 xm148 3.12815339647046e-13
Vx148 xm148 0 0
Gx148_1 x148 0 u1 0 -2.41001633908674e-08
Rx149 x149 0 1
Fxc149_148 x149 0 Vx148 -1993.63724371182
Cx149 x149 xm149 3.12815339647046e-13
Vx149 xm149 0 0
Gx149_1 x149 0 u1 0 4.80469833155735e-05
Rx150 x150 0 1
Fxc150_151 x150 0 Vx151 11.2679580764121
Cx150 x150 xm150 1.21980473796757e-12
Vx150 xm150 0 0
Gx150_1 x150 0 u1 0 -4.40817784454114e-07
Rx151 x151 0 1
Fxc151_150 x151 0 Vx150 -514.060668532967
Cx151 x151 xm151 1.21980473796757e-12
Vx151 xm151 0 0
Gx151_1 x151 0 u1 0 0.000226607084977703
Rx152 x152 0 1
Fxc152_153 x152 0 Vx153 2.80486045794338
Cx152 x152 xm152 6.30927595670662e-12
Vx152 xm152 0 0
Gx152_1 x152 0 u1 0 -4.60035744654429e-05
Rx153 x153 0 1
Fxc153_152 x153 0 Vx152 -91.255538481971
Cx153 x153 xm153 6.30927595670662e-12
Vx153 xm153 0 0
Gx153_1 x153 0 u1 0 0.00419808095993944
Rx154 x154 0 1
Fxc154_155 x154 0 Vx155 7419.62081704781
Cx154 x154 xm154 5.94898906330198e-14
Vx154 xm154 0 0
Gx154_1 x154 0 u1 0 -1.1663864474428e-08
Rx155 x155 0 1
Fxc155_154 x155 0 Vx154 -379.892945902257
Cx155 x155 xm155 5.94898906330198e-14
Vx155 xm155 0 0
Gx155_1 x155 0 u1 0 4.43101983579512e-06
Rx156 x156 0 1
Fxc156_157 x156 0 Vx157 609.587040127488
Cx156 x156 xm156 1.88629779420802e-12
Vx156 xm156 0 0
Gx156_1 x156 0 u1 0 -9.98305095575484e-06
Rx157 x157 0 1
Fxc157_156 x157 0 Vx156 -5.03287207985895
Cx157 x157 xm157 1.88629779420802e-12
Vx157 xm157 0 0
Gx157_1 x157 0 u1 0 5.02434184270277e-05
Rx158 x158 0 1
Fxc158_159 x158 0 Vx159 15.7096826799385
Cx158 x158 xm158 2.53255697284169e-12
Vx158 xm158 0 0
Gx158_1 x158 0 u1 0 -5.64532129840827e-06
Rx159 x159 0 1
Fxc159_158 x159 0 Vx158 -127.443108417839
Cx159 x159 xm159 2.53255697284169e-12
Vx159 xm159 0 0
Gx159_1 x159 0 u1 0 0.00071945729428658
Rx160 x160 0 1
Fxc160_161 x160 0 Vx161 25.4723146587905
Cx160 x160 xm160 1.07068178225324e-12
Vx160 xm160 0 0
Gx160_1 x160 0 u1 0 -4.28548305936242e-07
Rx161 x161 0 1
Fxc161_160 x161 0 Vx160 -470.125188941025
Cx161 x161 xm161 1.07068178225324e-12
Vx161 xm161 0 0
Gx161_1 x161 0 u1 0 0.000201471353298632
Rx162 x162 0 1
Cx162 x162 0 5.22190407222509e-10
Gx162_1 x162 0 u1 0 -0.866840315988095
Rx163 x163 0 1
Fxc163_164 x163 0 Vx164 180.08518240188
Cx163 x163 xm163 1.10121754249303e-12
Vx163 xm163 0 0
Gx163_1 x163 0 u1 0 -7.59604906106668e-07
Rx164 x164 0 1
Fxc164_163 x164 0 Vx163 -76.5627990474259
Cx164 x164 xm164 1.10121754249303e-12
Vx164 xm164 0 0
Gx164_1 x164 0 u1 0 5.81574777816836e-05
Rx165 x165 0 1
Fxc165_166 x165 0 Vx166 128.418468643151
Cx165 x165 xm165 1.3584005978461e-12
Vx165 xm165 0 0
Gx165_1 x165 0 u1 0 -1.20483527836428e-06
Rx166 x166 0 1
Fxc166_165 x166 0 Vx165 -80.6291573613597
Cx166 x166 xm166 1.35840059784609e-12
Vx166 xm166 0 0
Gx166_1 x166 0 u1 0 9.71448532537515e-05
Rx167 x167 0 1
Fxc167_168 x167 0 Vx168 3.46348798495064
Cx167 x167 xm167 1.37582820475616e-11
Vx167 xm167 0 0
Gx167_1 x167 0 u1 0 -0.000109084679455464
Rx168 x168 0 1
Fxc168_167 x168 0 Vx167 -40.2651360874888
Cx168 x168 xm168 1.37582820475616e-11
Vx168 xm168 0 0
Gx168_1 x168 0 u1 0 0.00439230946333437
Rx169 x169 0 1
Fxc169_170 x169 0 Vx170 8.35516441509579
Cx169 x169 xm169 2.55525080407755e-12
Vx169 xm169 0 0
Gx169_1 x169 0 u1 0 -2.2854787950552e-06
Rx170 x170 0 1
Fxc170_169 x170 0 Vx169 -267.109869558875
Cx170 x170 xm170 2.55525080407755e-12
Vx170 xm170 0 0
Gx170_1 x170 0 u1 0 0.00061047394282677
Rx171 x171 0 1
Fxc171_172 x171 0 Vx172 1.58957806884633
Cx171 x171 xm171 3.52048110577458e-12
Vx171 xm171 0 0
Gx171_1 x171 0 u1 0 -4.24554699672007e-07
Rx172 x172 0 1
Fxc172_171 x172 0 Vx171 -1110.57244483831
Cx172 x172 xm172 3.52048110577458e-12
Vx172 xm172 0 0
Gx172_1 x172 0 u1 0 0.000471498750782334
Rx173 x173 0 1
Fxc173_174 x173 0 Vx174 2.9866217307126
Cx173 x173 xm173 8.01925764208566e-11
Vx173 xm173 0 0
Gx173_1 x173 0 u1 0 -0.0230983635326091
Rx174 x174 0 1
Fxc174_173 x174 0 Vx173 -2.61536943758414
Cx174 x174 xm174 8.01925764208566e-11
Vx174 xm174 0 0
Gx174_1 x174 0 u1 0 0.0604107540413939
Rx175 x175 0 1
Fxc175_176 x175 0 Vx176 10.5222198350012
Cx175 x175 xm175 1.34818539204243e-12
Vx175 xm175 0 0
Gx175_1 x175 0 u1 0 -8.81527763721093e-08
Rx176 x176 0 1
Fxc176_175 x176 0 Vx175 -1434.28620527811
Cx176 x176 xm176 1.34818539204243e-12
Vx176 xm176 0 0
Gx176_1 x176 0 u1 0 0.000126436311107482
Rx177 x177 0 1
Fxc177_178 x177 0 Vx178 1.19239294253459
Cx177 x177 xm177 2.60286578934868e-10
Vx177 xm177 0 0
Gx177_1 x177 0 u1 0 -0.0547979827428292
Rx178 x178 0 1
Fxc178_177 x178 0 Vx177 -2.46862514459476
Cx178 x178 xm178 2.60286578934868e-10
Vx178 xm178 0 0
Gx178_1 x178 0 u1 0 0.135275678072018
Rx179 x179 0 1
Fxc179_180 x179 0 Vx180 9.13901176004122
Cx179 x179 xm179 1.94992797826926e-12
Vx179 xm179 0 0
Gx179_1 x179 0 u1 0 -1.38307987887476e-07
Rx180 x180 0 1
Fxc180_179 x180 0 Vx179 -985.264579907437
Cx180 x180 xm180 1.94992797826926e-12
Vx180 xm180 0 0
Gx180_1 x180 0 u1 0 0.000136269961583797
Rx181 x181 0 1
Fxc181_182 x181 0 Vx182 88.7010423069764
Cx181 x181 xm181 2.33413529363335e-12
Vx181 xm181 0 0
Gx181_1 x181 0 u1 0 -3.92322838231253e-07
Rx182 x182 0 1
Fxc182_181 x182 0 Vx181 -184.057054563326
Cx182 x182 xm182 2.33413529363335e-12
Vx182 xm182 0 0
Gx182_1 x182 0 u1 0 7.22097860427686e-05
Rx183 x183 0 1
Fxc183_184 x183 0 Vx184 14.0152950264803
Cx183 x183 xm183 1.72271737747677e-11
Vx183 xm183 0 0
Gx183_1 x183 0 u1 0 -0.000109013010637594
Rx184 x184 0 1
Fxc184_183 x184 0 Vx183 -14.8670846912857
Cx184 x184 xm184 1.72271737747677e-11
Vx184 xm184 0 0
Gx184_1 x184 0 u1 0 0.00162070566160114
Rx185 x185 0 1
Fxc185_186 x185 0 Vx186 275.60216660546
Cx185 x185 xm185 3.38373728470339e-12
Vx185 xm185 0 0
Gx185_1 x185 0 u1 0 -4.07605995395669e-06
Rx186 x186 0 1
Fxc186_185 x186 0 Vx185 -13.5068548165017
Cx186 x186 xm186 3.38373728470339e-12
Vx186 xm186 0 0
Gx186_1 x186 0 u1 0 5.50547500214494e-05
Rx187 x187 0 1
Fxc187_188 x187 0 Vx188 34.2456055011797
Cx187 x187 xm187 5.83456226648167e-12
Vx187 xm187 0 0
Gx187_1 x187 0 u1 0 -1.36632883056912e-06
Rx188 x188 0 1
Fxc188_187 x188 0 Vx187 -124.677196536631
Cx188 x188 xm188 5.83456226648167e-12
Vx188 xm188 0 0
Gx188_1 x188 0 u1 0 0.000170350048142532
Rx189 x189 0 1
Fxc189_190 x189 0 Vx190 38.8233229767543
Cx189 x189 xm189 3.71913677806581e-11
Vx189 xm189 0 0
Gx189_1 x189 0 u1 0 -0.00239702232028316
Rx190 x190 0 1
Fxc190_189 x190 0 Vx189 -4.87584470757265
Cx190 x190 xm190 3.71913677806581e-11
Vx190 xm190 0 0
Gx190_1 x190 0 u1 0 0.0116875085942862
Rx191 x191 0 1
Fxc191_192 x191 0 Vx192 33.5097289105636
Cx191 x191 xm191 3.43647746350443e-11
Vx191 xm191 0 0
Gx191_1 x191 0 u1 0 -0.00188805468748062
Rx192 x192 0 1
Fxc192_191 x192 0 Vx191 -6.58382475058671
Cx192 x192 xm192 3.43647746350443e-11
Vx192 xm192 0 0
Gx192_1 x192 0 u1 0 0.0124306211818961
Rx193 x193 0 1
Fxc193_194 x193 0 Vx194 1.81130733370953
Cx193 x193 xm193 1.92407202503742e-10
Vx193 xm193 0 0
Gx193_1 x193 0 u1 0 -0.000489783018731503
Rx194 x194 0 1
Fxc194_193 x194 0 Vx193 -13.5353249335575
Cx194 x194 xm194 1.92407202503742e-10
Vx194 xm194 0 0
Gx194_1 x194 0 u1 0 0.00662937230546957
Rx195 x195 0 1
Fxc195_196 x195 0 Vx196 217.665581252764
Cx195 x195 xm195 8.89563374249556e-13
Vx195 xm195 0 0
Gx195_1 x195 0 u1 0 -1.01040650699523e-07
Rx196 x196 0 1
Fxc196_195 x196 0 Vx195 -342.516819611612
Cx196 x196 xm196 8.89563374249556e-13
Vx196 xm196 0 0
Gx196_1 x196 0 u1 0 3.46081223290885e-05
Rx197 x197 0 1
Fxc197_198 x197 0 Vx198 1.58251524871887
Cx197 x197 xm197 1.38719414317867e-09
Vx197 xm197 0 0
Gx197_1 x197 0 u1 0 -0.0819647826272169
Rx198 x198 0 1
Fxc198_197 x198 0 Vx197 -0.368098062785082
Cx198 x198 xm198 1.38719414317867e-09
Vx198 xm198 0 0
Gx198_1 x198 0 u1 0 0.0301710777016789
Rx199 x199 0 1
Cx199 x199 0 4.58826427740312e-07
Gx199_1 x199 0 u1 0 -0.664245904842795
Rx200 x200 0 1
Cx200 x200 0 7.53723517430562e-08
Gx200_1 x200 0 u1 0 -0.151468769908563
Rx201 x201 0 1
Fxc201_202 x201 0 Vx202 2.11245107764624
Cx201 x201 xm201 4.30686999129145e-12
Vx201 xm201 0 0
Gx201_2 x201 0 u2 0 -0.0871763805726945
Rx202 x202 0 1
Fxc202_201 x202 0 Vx201 -7.96428321605149
Cx202 x202 xm202 4.30686999129145e-12
Vx202 xm202 0 0
Gx202_2 x202 0 u2 0 0.694297384631228
Rx203 x203 0 1
Fxc203_204 x203 0 Vx204 1.41615349491078
Cx203 x203 xm203 8.05342537957096e-12
Vx203 xm203 0 0
Gx203_2 x203 0 u2 0 -0.112505761797602
Rx204 x204 0 1
Fxc204_203 x204 0 Vx203 -6.0742639314443
Cx204 x204 xm204 8.05342537957096e-12
Vx204 xm204 0 0
Gx204_2 x204 0 u2 0 0.68338969096684
Rx205 x205 0 1
Fxc205_206 x205 0 Vx206 565.62639185662
Cx205 x205 xm205 2.88356300968449e-14
Vx205 xm205 0 0
Gx205_2 x205 0 u2 0 -1.49279908714582e-08
Rx206 x206 0 1
Fxc206_205 x206 0 Vx205 -1131.64102459798
Cx206 x206 xm206 2.88356300968449e-14
Vx206 xm206 0 0
Gx206_2 x206 0 u2 0 1.68931268849662e-05
Rx207 x207 0 1